<?xml version="1.0" encoding="UTF-8"?>

<!-- generated on 2025-05-19 20:34:50 by Eclipse SUMO netedit Version 1.23.1
<neteditConfiguration xmlns:xsi="http://www.w3.org/2001/XMLSchema-instance" xsi:noNamespaceSchemaLocation="http://sumo.dlr.de/xsd/neteditConfiguration.xsd">

    <input>
        <sumo-net-file value="C:\Users\trose\Workspace\Fellowship &apos;25 Personal\2025-Fellowship-Personal\DrivingInCircles\circles.net.xml"/>
    </input>

    <output>
        <output-file value="C:\Users\trose\Workspace\Fellowship &apos;25 Personal\2025-Fellowship-Personal\DrivingInCircles\circles.net.xml"/>
    </output>

    <processing>
        <offset.disable-normalization value="true"/>
    </processing>

    <junctions>
        <no-turnarounds value="true"/>
    </junctions>

    <netedit>
        <new-network value="false"/>
    </netedit>

</neteditConfiguration>
-->

<net version="1.20" junctionCornerDetail="5" limitTurnSpeed="5.50" xmlns:xsi="http://www.w3.org/2001/XMLSchema-instance" xsi:noNamespaceSchemaLocation="http://sumo.dlr.de/xsd/net_file.xsd">

    <location netOffset="0.00,0.00" convBoundary="-107.80,-106.28,143.72,94.29" origBoundary="10000000000.00,10000000000.00,-10000000000.00,-10000000000.00" projParameter="!"/>

    <edge id=":J0_0" function="internal">
        <lane id=":J0_0_0" index="0" speed="13.89" length="0.50" shape="-103.43,-11.42 -103.42,-11.28 -103.40,-11.18 -103.38,-11.08 -103.33,-10.94"/>
    </edge>
    <edge id=":J1_0" function="internal">
        <lane id=":J1_0_0" index="0" speed="4.25" length="1.24" shape="-77.11,59.36 -76.97,59.70 -76.83,59.91 -76.63,60.07 -76.31,60.24"/>
    </edge>
    <edge id=":J2_0" function="internal">
        <lane id=":J2_0_0" index="0" speed="13.89" length="0.71" shape="-12.09,91.38 -11.91,91.46 -11.77,91.51 -11.63,91.53 -11.42,91.54"/>
    </edge>
    <edge id=":J3_0" function="internal">
        <lane id=":J3_0_0" index="0" speed="4.17" length="1.30" shape="80.76,92.67 81.09,92.64 81.39,92.55 81.67,92.40 81.92,92.18"/>
    </edge>
    <edge id=":J4_0" function="internal">
        <lane id=":J4_0_0" index="0" speed="4.07" length="1.51" shape="141.43,30.88 141.67,30.58 141.83,30.24 141.89,29.88 141.86,29.49"/>
    </edge>
    <edge id=":J5_0" function="internal">
        <lane id=":J5_0_0" index="0" speed="4.07" length="1.51" shape="125.98,-61.33 125.87,-61.70 125.69,-62.02 125.44,-62.28 125.11,-62.49"/>
    </edge>
    <edge id=":J6_0" function="internal">
        <lane id=":J6_0_0" index="0" speed="13.89" length="0.76" shape="39.48,-104.51 39.28,-104.61 39.13,-104.66 38.98,-104.67 38.75,-104.67"/>
    </edge>
    <edge id=":J7_0" function="internal">
        <lane id=":J7_0_0" index="0" speed="13.89" length="0.86" shape="-49.70,-103.54 -49.96,-103.53 -50.13,-103.50 -50.29,-103.43 -50.51,-103.31"/>
    </edge>
    <edge id=":J8_0" function="internal">
        <lane id=":J8_0_0" index="0" speed="4.01" length="1.72" shape="-105.35,-70.00 -105.70,-69.73 -105.95,-69.40 -106.08,-69.01 -106.12,-68.56"/>
    </edge>

    <edge id="E1" from="J1" to="J2" priority="-1">
        <lane id="E1_0" index="0" speed="13.89" length="71.36" shape="-76.31,60.24 -12.09,91.38"/>
    </edge>
    <edge id="E2" from="J2" to="J3" priority="-1">
        <lane id="E2_0" index="0" speed="13.89" length="92.18" shape="-11.42,91.54 80.76,92.67"/>
    </edge>
    <edge id="E3" from="J3" to="J4" priority="-1">
        <lane id="E3_0" index="0" speed="13.89" length="85.44" shape="81.92,92.18 141.43,30.88"/>
    </edge>
    <edge id="E4" from="J4" to="J5" priority="-1">
        <lane id="E4_0" index="0" speed="13.89" length="92.20" shape="141.86,29.49 125.98,-61.33"/>
    </edge>
    <edge id="E6" from="J6" to="J7" priority="-1">
        <lane id="E6_0" index="0" speed="13.89" length="88.46" shape="38.75,-104.67 -49.70,-103.54"/>
    </edge>
    <edge id="E7" from="J7" to="J8" priority="-1">
        <lane id="E7_0" index="0" speed="13.89" length="64.15" shape="-50.51,-103.31 -105.35,-70.00"/>
    </edge>
    <edge id="E8" from="J8" to="J0" priority="-1">
        <lane id="E8_0" index="0" speed="13.89" length="57.20" shape="-106.12,-68.56 -103.43,-11.42"/>
    </edge>
    <edge id="edge1" from="J0" to="J1" priority="-1">
        <lane id="edge1_0" index="0" speed="13.89" length="75.03" shape="-103.33,-10.94 -77.11,59.36"/>
    </edge>
    <edge id="edge2" from="J5" to="J6" priority="-1">
        <lane id="edge2_0" index="0" speed="13.89" length="95.39" shape="125.11,-62.49 39.48,-104.51"/>
    </edge>

    <junction id="J0" type="priority" x="-105.00" y="-10.85" incLanes="E8_0" intLanes=":J0_0_0" shape="-104.83,-10.38 -101.83,-11.50 -105.02,-11.35 -105.00,-10.98 -104.98,-10.85 -104.95,-10.73 -104.90,-10.58">
        <request index="0" response="0" foes="0" cont="0"/>
    </junction>
    <junction id="J1" type="priority" x="-78.16" y="61.12" incLanes="edge1_0" intLanes=":J1_0_0" shape="-77.00,61.68 -75.61,58.80 -78.61,59.92 -78.24,60.76 -78.05,61.02 -77.80,61.24 -77.47,61.45">
        <request index="0" response="0" foes="0" cont="0"/>
    </junction>
    <junction id="J2" type="priority" x="-12.15" y="93.13" incLanes="E1_0" intLanes=":J2_0_0" shape="-11.44,93.14 -11.40,89.94 -12.79,92.82 -12.32,93.03 -12.14,93.09 -11.96,93.12 -11.73,93.13">
        <request index="0" response="0" foes="0" cont="0"/>
    </junction>
    <junction id="J3" type="priority" x="82.11" y="94.29" incLanes="E2_0" intLanes=":J3_0_0" shape="83.07,93.30 80.78,91.07 80.74,94.27 81.61,94.17 82.01,94.03 82.39,93.84 82.74,93.60">
        <request index="0" response="0" foes="0" cont="0"/>
    </junction>
    <junction id="J4" type="priority" x="143.72" y="30.83" incLanes="E3_0" intLanes=":J4_0_0" shape="143.44,29.22 140.29,29.77 142.58,32.00 143.18,31.17 143.36,30.72 143.47,30.24 143.49,29.74">
        <request index="0" response="0" foes="0" cont="0"/>
    </junction>
    <junction id="J5" type="priority" x="127.28" y="-63.21" incLanes="E4_0" intLanes=":J5_0_0" shape="124.40,-61.05 127.56,-61.60 127.24,-62.57 126.98,-62.98 126.66,-63.35 126.27,-63.66 125.81,-63.92">
        <request index="0" response="0" foes="0" cont="0"/>
    </junction>
    <junction id="J6" type="priority" x="39.50" y="-106.28" incLanes="edge2_0" intLanes=":J6_0_0" shape="38.77,-103.07 40.18,-105.95 39.68,-106.18 39.49,-106.24 39.29,-106.27 39.05,-106.28 38.73,-106.27">
        <request index="0" response="0" foes="0" cont="0"/>
    </junction>
    <junction id="J7" type="priority" x="-50.60" y="-105.13" incLanes="E6_0" intLanes=":J7_0_0" shape="-49.68,-101.94 -49.72,-105.14 -50.36,-105.11 -50.58,-105.06 -50.79,-104.99 -51.03,-104.86 -51.34,-104.67">
        <request index="0" response="0" foes="0" cont="0"/>
    </junction>
    <junction id="J8" type="priority" x="-107.80" y="-70.39" incLanes="E7_0" intLanes=":J8_0_0" shape="-107.71,-68.49 -104.52,-68.64 -106.18,-71.37 -107.07,-70.61 -107.37,-70.16 -107.58,-69.65 -107.70,-69.09">
        <request index="0" response="0" foes="0" cont="0"/>
    </junction>

    <connection from="E1" to="E2" fromLane="0" toLane="0" via=":J2_0_0" dir="s" state="M"/>
    <connection from="E2" to="E3" fromLane="0" toLane="0" via=":J3_0_0" dir="r" state="M"/>
    <connection from="E3" to="E4" fromLane="0" toLane="0" via=":J4_0_0" dir="r" state="M"/>
    <connection from="E4" to="edge2" fromLane="0" toLane="0" via=":J5_0_0" dir="r" state="M"/>
    <connection from="E6" to="E7" fromLane="0" toLane="0" via=":J7_0_0" dir="s" state="M"/>
    <connection from="E7" to="E8" fromLane="0" toLane="0" via=":J8_0_0" dir="r" state="M"/>
    <connection from="E8" to="edge1" fromLane="0" toLane="0" via=":J0_0_0" dir="s" state="M"/>
    <connection from="edge1" to="E1" fromLane="0" toLane="0" via=":J1_0_0" dir="s" state="M"/>
    <connection from="edge2" to="E6" fromLane="0" toLane="0" via=":J6_0_0" dir="s" state="M"/>

    <connection from=":J0_0" to="edge1" fromLane="0" toLane="0" dir="s" state="M"/>
    <connection from=":J1_0" to="E1" fromLane="0" toLane="0" dir="s" state="M"/>
    <connection from=":J2_0" to="E2" fromLane="0" toLane="0" dir="s" state="M"/>
    <connection from=":J3_0" to="E3" fromLane="0" toLane="0" dir="r" state="M"/>
    <connection from=":J4_0" to="E4" fromLane="0" toLane="0" dir="r" state="M"/>
    <connection from=":J5_0" to="edge2" fromLane="0" toLane="0" dir="r" state="M"/>
    <connection from=":J6_0" to="E6" fromLane="0" toLane="0" dir="s" state="M"/>
    <connection from=":J7_0" to="E7" fromLane="0" toLane="0" dir="s" state="M"/>
    <connection from=":J8_0" to="E8" fromLane="0" toLane="0" dir="r" state="M"/>

</net>
