[TicToc18]
network = TicToc18
sim-time-limit = 250000s
**.tic[*].hopCount.result-recording-modes = +vector,+histogram
*.numCentralNodes = ${N=2..100 step 2}
repeat = 4