<net>
    <nodes>
        <node id="A" x="0" y="0" type="priority"/>
        <node id="B" x="1000" y="0" type="priority"/>
    </nodes>
    <edges>
        <edge id="AB" from="A" to="B" numLanes="1" speed="13.9"/>
    </edges>
</net>
