<routes>
    <vType id="car" accel="2.6" decel="4.5" length="5" maxSpeed="13.9" color="1,0,0"/>
    <route id="route0" edges="AB"/>
    <vehicle id="vehicle0" type="car" route="route0" depart="0"/>
</routes>
