<routes>

    <vType id="bus" vClass="bus"/>
    <vType id="tram" vClass="tram"/>

    <route id="busRoute" edges="E3.2 E1.1 E2.1 E4.2" color="yellow" repeat="10" cycleTime="140">
        <stop busStop="bs_4" duration="20.00" until="90.00"/>
        <stop busStop="bs_1" duration="20.00" until="30.00"/>
    </route>

    <vehicle id="bus" type="bus" depart="0.00" line="42" route="busRoute"/>

    <flow id="tram1" type="tram" begin="0.00" end="3600.00" period="300.00" line="23">
        <route edges="E5.1" color="cyan"/>
        <stop busStop="bs_3" duration="20.00" until="30.00"/>
    </flow>

    <flow id="tram2" type="tram" begin="0.00" end="3600.00" period="300.00" line="23b">
        <route edges="E5.2" color="cyan"/>
        <stop busStop="bs_0" duration="20.00" until="45.00"/>
        <stop busStop="bs_2" duration="20.00" until="30.00"/>
    </flow>

    <personFlow id="pf1" begin="0" end="3600" probability="0.1">
        <personTrip from="E3.2" to="E1.1" arrivalPos="-20" modes="public"/>
    </personFlow>

    <!-- <personFlow>
        <personTrip id="pf2" begin="0" end="3600" probability="0.1" departPos="-20"/>
    </personFlow> -->

</routes>