<?xml version="1.0" encoding="UTF-8"?>

<!-- generated on 2025-05-20 01:21:31 by Eclipse SUMO netedit Version 1.23.1
<neteditConfiguration xmlns:xsi="http://www.w3.org/2001/XMLSchema-instance" xsi:noNamespaceSchemaLocation="http://sumo.dlr.de/xsd/neteditConfiguration.xsd">

    <input>
        <sumo-net-file value="C:\Users\trose\Workspace\Fellowship &apos;25 Personal\2025-Fellowship-Personal\SUMO\SUMO Tutorials\Public Transport\publictransport.net.xml"/>
    </input>

    <output>
        <output-file value="C:\Users\trose\Workspace\Fellowship &apos;25 Personal\2025-Fellowship-Personal\SUMO\SUMO Tutorials\Public Transport\publictransport.net.xml"/>
    </output>

    <processing>
        <geometry.min-radius.fix.railways value="false"/>
        <geometry.avoid-overlap value="false"/>
        <geometry.max-grade.fix value="false"/>
        <offset.disable-normalization value="true"/>
        <lefthand value="0"/>
    </processing>

    <junctions>
        <no-turnarounds value="true"/>
        <junctions.corner-detail value="5"/>
        <junctions.limit-turn-speed value="5.50"/>
        <rectangular-lane-cut value="0"/>
    </junctions>

    <pedestrian>
        <walkingareas value="0"/>
    </pedestrian>

</neteditConfiguration>
-->

<net version="1.20" junctionCornerDetail="5" limitTurnSpeed="5.50" avoidOverlap="0" xmlns:xsi="http://www.w3.org/2001/XMLSchema-instance" xsi:noNamespaceSchemaLocation="http://sumo.dlr.de/xsd/net_file.xsd">

    <location netOffset="0.00,0.00" convBoundary="-100.00,-100.00,200.00,100.00" origBoundary="-10000000000.00,-10000000000.00,10000000000.00,10000000000.00" projParameter="!"/>

    <edge id=":J1_0" function="internal">
        <lane id=":J1_0_0" index="0" disallow="pedestrian" speed="10.66" length="26.00" shape="-81.33,101.60 -90.20,100.88 -96.53,98.73 -100.33,95.14 -101.60,90.12"/>
    </edge>
    <edge id=":J1_1" function="internal">
        <lane id=":J1_1_0" index="0" allow="tram rail_urban rail rail_electric rail_fast" speed="7.03" length="18.76" shape="-81.33,101.60 -86.11,100.13 -88.64,96.56 -88.51,92.19 -85.35,88.31"/>
    </edge>
    <edge id=":J1_2" function="internal">
        <lane id=":J1_2_0" index="0" allow="tram rail_urban rail rail_electric rail_fast" speed="6.43" length="15.40" shape="-83.57,90.97 -87.61,94.22 -88.58,96.54 -86.49,97.94 -81.33,98.40"/>
    </edge>
    <edge id=":J1_3" function="internal">
        <lane id=":J1_3_0" index="0" allow="tram rail_urban rail rail_electric rail_fast" speed="8.46" length="23.16" shape="-83.57,90.97 -89.91,94.59 -95.72,96.39 -99.96,95.26 -101.60,90.12"/>
    </edge>
    <edge id=":J1_4" function="internal">
        <lane id=":J1_4_0" index="0" allow="tram rail_urban rail rail_electric rail_fast" speed="7.14" length="16.06" shape="-98.40,90.12 -97.58,92.59 -95.14,93.11 -91.06,91.69 -85.35,88.31"/>
    </edge>
    <edge id=":J1_5" function="internal">
        <lane id=":J1_5_0" index="0" disallow="pedestrian" speed="9.61" length="20.94" shape="-98.40,90.12 -97.33,93.74 -94.13,96.33 -88.80,97.88 -81.33,98.40"/>
    </edge>
    <edge id=":J2_0" function="internal">
        <lane id=":J2_0_0" index="0" disallow="pedestrian" speed="7.10" length="10.97" shape="201.60,94.80 201.18,97.77 199.90,99.90 197.77,101.17 194.80,101.60"/>
    </edge>
    <edge id=":J2_1" function="internal">
        <lane id=":J2_1_0" index="0" disallow="pedestrian" speed="5.37" length="5.81" shape="194.80,98.40 196.38,98.17 197.50,97.50 198.18,96.38 198.40,94.80"/>
    </edge>
    <edge id=":J3_0" function="internal">
        <lane id=":J3_0_0" index="0" speed="6.08" length="7.74" shape="-101.60,-96.80 -101.30,-98.90 -100.40,-100.40 -98.90,-101.30 -96.80,-101.60"/>
    </edge>
    <edge id=":J3_1" function="internal">
        <lane id=":J3_1_0" index="0" speed="3.90" length="2.58" shape="-96.80,-98.40 -97.50,-98.30 -98.00,-98.00 -98.30,-97.50 -98.40,-96.80"/>
    </edge>
    <edge id=":J4_0" function="internal">
        <lane id=":J4_0_0" index="0" allow="tram rail_urban rail rail_electric rail_fast" speed="6.65" length="13.75" shape="198.40,-88.78 197.77,-91.96 195.89,-93.28 192.75,-92.73 188.35,-90.31"/>
    </edge>
    <edge id=":J4_1" function="internal">
        <lane id=":J4_1_0" index="0" disallow="pedestrian" speed="9.23" length="19.24" shape="198.40,-88.78 197.52,-92.99 194.88,-96.00 190.48,-97.80 184.33,-98.40"/>
    </edge>
    <edge id=":J4_2" function="internal">
        <lane id=":J4_2_0" index="0" disallow="pedestrian" speed="10.33" length="24.37" shape="184.33,-101.60 191.88,-100.80 197.28,-98.40 200.52,-94.39 201.60,-88.78"/>
    </edge>
    <edge id=":J4_3" function="internal">
        <lane id=":J4_3_0" index="0" allow="tram rail_urban rail rail_electric rail_fast" speed="6.58" length="16.19" shape="184.33,-101.60 188.54,-100.36 190.91,-97.34 190.99,-93.63 188.35,-90.31"/>
    </edge>
    <edge id=":J4_4" function="internal">
        <lane id=":J4_4_0" index="0" allow="tram rail_urban rail rail_electric rail_fast" speed="5.68" length="11.61" shape="186.57,-92.97 189.49,-95.35 190.08,-97.04 188.36,-98.06 184.33,-98.40"/>
    </edge>
    <edge id=":J4_5" function="internal">
        <lane id=":J4_5_0" index="0" allow="tram rail_urban rail rail_electric rail_fast" speed="8.19" length="21.64" shape="186.57,-92.97 193.15,-96.47 197.84,-96.93 200.66,-94.37 201.60,-88.78"/>
    </edge>

    <edge id="E1.1" from="J2" to="J1" priority="-1">
        <lane id="E1.1_0" index="0" allow="pedestrian" speed="13.89" length="276.13" width="2.00" shape="194.80,104.20 -81.33,104.20"/>
        <lane id="E1.1_1" index="1" disallow="pedestrian" speed="13.89" length="276.13" shape="194.80,101.60 -81.33,101.60"/>
    </edge>
    <edge id="E1.2" from="J1" to="J2" priority="-1">
        <lane id="E1.2_0" index="0" allow="pedestrian" speed="13.89" length="276.13" width="2.00" shape="-81.33,95.80 194.80,95.80"/>
        <lane id="E1.2_1" index="1" disallow="pedestrian" speed="13.89" length="276.13" shape="-81.33,98.40 194.80,98.40"/>
    </edge>
    <edge id="E2.1" from="J1" to="J3" priority="-1">
        <lane id="E2.1_0" index="0" speed="13.89" length="186.92" shape="-101.60,90.12 -101.60,-96.80"/>
    </edge>
    <edge id="E2.2" from="J3" to="J1" priority="-1">
        <lane id="E2.2_0" index="0" speed="13.89" length="186.92" shape="-98.40,-96.80 -98.40,90.12"/>
    </edge>
    <edge id="E3.1" from="J2" to="J4" priority="-1">
        <lane id="E3.1_0" index="0" allow="pedestrian" speed="13.89" length="183.58" width="2.00" shape="195.80,94.80 195.80,-88.78"/>
        <lane id="E3.1_1" index="1" disallow="pedestrian" speed="13.89" length="183.58" shape="198.40,94.80 198.40,-88.78"/>
    </edge>
    <edge id="E3.2" from="J4" to="J2" priority="-1">
        <lane id="E3.2_0" index="0" allow="pedestrian" speed="13.89" length="183.58" width="2.00" shape="204.20,-88.78 204.20,94.80"/>
        <lane id="E3.2_1" index="1" disallow="pedestrian" speed="13.89" length="183.58" shape="201.60,-88.78 201.60,94.80"/>
    </edge>
    <edge id="E4.1" from="J4" to="J3" priority="-1">
        <lane id="E4.1_0" index="0" speed="13.89" length="281.13" shape="184.33,-98.40 -96.80,-98.40"/>
    </edge>
    <edge id="E4.2" from="J3" to="J4" priority="-1">
        <lane id="E4.2_0" index="0" speed="13.89" length="281.13" shape="-96.80,-101.60 184.33,-101.60"/>
    </edge>
    <edge id="E5.1" from="J1" to="J4" priority="-1">
        <lane id="E5.1_0" index="0" allow="pedestrian" speed="13.89" length="326.81" width="2.00" shape="-86.79,86.15 185.13,-95.14"/>
        <lane id="E5.1_1" index="1" allow="tram rail_urban rail rail_electric rail_fast" speed="13.89" length="326.81" shape="-85.35,88.31 186.57,-92.97"/>
    </edge>
    <edge id="E5.2" from="J4" to="J1" priority="-1">
        <lane id="E5.2_0" index="0" allow="pedestrian" speed="13.89" length="326.81" width="2.00" shape="189.79,-88.15 -82.13,93.14"/>
        <lane id="E5.2_1" index="1" allow="tram rail_urban rail rail_electric rail_fast" speed="13.89" length="326.81" shape="188.35,-90.31 -83.57,90.97"/>
    </edge>

    <junction id="J1" type="priority" x="-100.00" y="100.00" incLanes="E1.1_0 E1.1_1 E5.2_0 E5.2_1 E2.2_0" intLanes=":J1_0_0 :J1_1_0 :J1_2_0 :J1_3_0 :J1_4_0 :J1_5_0" shape="-81.33,105.20 -81.33,94.80 -81.58,93.97 -87.35,85.31 -90.23,87.20 -92.60,88.65 -94.44,89.67 -95.75,90.25 -96.54,90.40 -96.80,90.12 -103.20,90.12 -102.59,94.73 -100.77,98.50 -97.73,101.43 -93.48,103.52 -88.01,104.78">
        <request index="0" response="000000" foes="001000" cont="0"/>
        <request index="1" response="000000" foes="111000" cont="0"/>
        <request index="2" response="000000" foes="100000" cont="0"/>
        <request index="3" response="000011" foes="100011" cont="0"/>
        <request index="4" response="000010" foes="000010" cont="0"/>
        <request index="5" response="001110" foes="001110" cont="0"/>
    </junction>
    <junction id="J2" type="priority" x="200.00" y="100.00" incLanes="E3.2_0 E3.2_1 E1.2_0 E1.2_1" intLanes=":J2_0_0 :J2_1_0" shape="205.20,94.80 194.80,94.80 194.80,105.20 197.98,104.91 200.58,104.04 202.60,102.60 204.04,100.58 204.91,97.98">
        <request index="0" response="00" foes="00" cont="0"/>
        <request index="1" response="00" foes="00" cont="0"/>
    </junction>
    <junction id="J3" type="priority" x="-100.00" y="-100.00" incLanes="E2.1_0 E4.1_0" intLanes=":J3_0_0 :J3_1_0" shape="-103.20,-96.80 -96.80,-96.80 -96.80,-103.20 -100.36,-102.49 -101.60,-101.60 -102.49,-100.36 -103.02,-98.76">
        <request index="0" response="00" foes="00" cont="0"/>
        <request index="1" response="00" foes="00" cont="0"/>
    </junction>
    <junction id="J4" type="priority" x="200.00" y="-100.00" incLanes="E3.1_0 E3.1_1 E4.2_0 E5.1_0 E5.1_1" intLanes=":J4_0_0 :J4_1_0 :J4_2_0 :J4_3_0 :J4_4_0 :J4_5_0" shape="194.80,-88.78 205.20,-88.78 204.62,-93.19 202.88,-96.79 199.98,-99.60 195.92,-101.60 190.70,-102.80 184.33,-103.20 184.33,-96.80 184.58,-95.97 190.35,-87.31 192.82,-88.80 193.69,-89.17 194.31,-89.29 194.68,-89.16">
        <request index="0" response="000000" foes="001000" cont="0"/>
        <request index="1" response="110000" foes="111000" cont="0"/>
        <request index="2" response="100000" foes="100000" cont="0"/>
        <request index="3" response="100011" foes="100011" cont="0"/>
        <request index="4" response="000000" foes="000010" cont="0"/>
        <request index="5" response="000000" foes="001110" cont="0"/>
    </junction>

    <connection from="E1.1" to="E2.1" fromLane="1" toLane="0" via=":J1_0_0" dir="L" state="M"/>
    <connection from="E1.1" to="E5.1" fromLane="1" toLane="1" via=":J1_1_0" dir="l" state="M"/>
    <connection from="E1.2" to="E3.1" fromLane="1" toLane="1" via=":J2_1_0" dir="r" state="M"/>
    <connection from="E2.1" to="E4.2" fromLane="0" toLane="0" via=":J3_0_0" dir="l" state="M"/>
    <connection from="E2.2" to="E5.1" fromLane="0" toLane="1" via=":J1_4_0" dir="r" state="m"/>
    <connection from="E2.2" to="E1.2" fromLane="0" toLane="1" via=":J1_5_0" dir="R" state="m"/>
    <connection from="E3.1" to="E5.2" fromLane="1" toLane="1" via=":J4_0_0" dir="r" state="M"/>
    <connection from="E3.1" to="E4.1" fromLane="1" toLane="0" via=":J4_1_0" dir="R" state="m"/>
    <connection from="E3.2" to="E1.1" fromLane="1" toLane="1" via=":J2_0_0" dir="l" state="M"/>
    <connection from="E4.1" to="E2.2" fromLane="0" toLane="0" via=":J3_1_0" dir="r" state="M"/>
    <connection from="E4.2" to="E3.2" fromLane="0" toLane="1" via=":J4_2_0" dir="L" state="m"/>
    <connection from="E4.2" to="E5.2" fromLane="0" toLane="1" via=":J4_3_0" dir="l" state="m"/>
    <connection from="E5.1" to="E4.1" fromLane="1" toLane="0" via=":J4_4_0" dir="r" state="M"/>
    <connection from="E5.1" to="E3.2" fromLane="1" toLane="1" via=":J4_5_0" dir="l" state="M"/>
    <connection from="E5.2" to="E1.2" fromLane="1" toLane="1" via=":J1_2_0" dir="r" state="M"/>
    <connection from="E5.2" to="E2.1" fromLane="1" toLane="0" via=":J1_3_0" dir="l" state="m"/>

    <connection from=":J1_0" to="E2.1" fromLane="0" toLane="0" dir="L" state="M"/>
    <connection from=":J1_1" to="E5.1" fromLane="0" toLane="1" dir="l" state="M"/>
    <connection from=":J1_2" to="E1.2" fromLane="0" toLane="1" dir="r" state="M"/>
    <connection from=":J1_3" to="E2.1" fromLane="0" toLane="0" dir="l" state="M"/>
    <connection from=":J1_4" to="E5.1" fromLane="0" toLane="1" dir="r" state="M"/>
    <connection from=":J1_5" to="E1.2" fromLane="0" toLane="1" dir="R" state="M"/>
    <connection from=":J2_0" to="E1.1" fromLane="0" toLane="1" dir="l" state="M"/>
    <connection from=":J2_1" to="E3.1" fromLane="0" toLane="1" dir="r" state="M"/>
    <connection from=":J3_0" to="E4.2" fromLane="0" toLane="0" dir="l" state="M"/>
    <connection from=":J3_1" to="E2.2" fromLane="0" toLane="0" dir="r" state="M"/>
    <connection from=":J4_0" to="E5.2" fromLane="0" toLane="1" dir="r" state="M"/>
    <connection from=":J4_1" to="E4.1" fromLane="0" toLane="0" dir="R" state="M"/>
    <connection from=":J4_2" to="E3.2" fromLane="0" toLane="1" dir="L" state="M"/>
    <connection from=":J4_3" to="E5.2" fromLane="0" toLane="1" dir="l" state="M"/>
    <connection from=":J4_4" to="E4.1" fromLane="0" toLane="0" dir="r" state="M"/>
    <connection from=":J4_5" to="E3.2" fromLane="0" toLane="1" dir="l" state="M"/>

</net>
