<routes>
    <vType id="bus" vClass="bus" color="1,0,0" accel="0.5" decel="0.5" length="12.0" maxSpeed="13.89" guiShape="bus"/>

    <vehicle id="bus_0" type="bus" route="1 2 3 4" depart="0.00" departPos="0.00" departSpeed="0.00" color="1,0,0"/>
</routes>