<?xml version="1.0" encoding="UTF-8"?>

<!-- generated on 2025-05-20 00:10:31 by Eclipse SUMO netedit Version 1.23.1
<neteditConfiguration xmlns:xsi="http://www.w3.org/2001/XMLSchema-instance" xsi:noNamespaceSchemaLocation="http://sumo.dlr.de/xsd/neteditConfiguration.xsd">

    <input>
        <sumo-net-file value="C:\Users\trose\Workspace\Fellowship &apos;25 Personal\2025-Fellowship-Personal\SUMO\SUMO Tutorials\Bus Basics\busbasics.net.xml"/>
    </input>

    <output>
        <output-file value="C:\Users\trose\Workspace\Fellowship &apos;25 Personal\2025-Fellowship-Personal\SUMO\SUMO Tutorials\Bus Basics\busbasics.net.xml"/>
    </output>

    <processing>
        <offset.disable-normalization value="true"/>
    </processing>

    <junctions>
        <no-turnarounds value="true"/>
    </junctions>

    <netedit>
        <new-network value="false"/>
    </netedit>

</neteditConfiguration>
-->

<net version="1.20" junctionCornerDetail="5" limitTurnSpeed="5.50" xmlns:xsi="http://www.w3.org/2001/XMLSchema-instance" xsi:noNamespaceSchemaLocation="http://sumo.dlr.de/xsd/net_file.xsd">

    <location netOffset="0.00,0.00" convBoundary="-113.90,-23.83,12.97,82.52" origBoundary="10000000000.00,10000000000.00,-10000000000.00,-10000000000.00" projParameter="!"/>

    <edge id=":1_0" function="internal">
        <lane id=":1_0_0" index="0" allow="bus" speed="6.09" length="7.27" shape="-103.41,82.57 -105.36,82.27 -106.80,81.43 -107.72,80.04 -108.14,78.12"/>
    </edge>
    <edge id=":1_1" function="internal">
        <lane id=":1_1_0" index="0" allow="bus" speed="3.91" length="2.42" shape="-104.95,77.89 -104.81,78.53 -104.50,78.99 -104.02,79.27 -103.37,79.37"/>
    </edge>
    <edge id=":2_0" function="internal">
        <lane id=":2_0_0" index="0" allow="bus" speed="6.07" length="7.98" shape="14.48,79.14 14.23,81.33 13.33,82.88 11.80,83.80 9.61,84.08"/>
    </edge>
    <edge id=":2_1" function="internal">
        <lane id=":2_1_0" index="0" allow="bus" speed="3.90" length="2.66" shape="9.66,80.88 10.38,80.79 10.90,80.48 11.19,79.96 11.28,79.23"/>
    </edge>
    <edge id=":3_0" function="internal">
        <lane id=":3_0_0" index="0" allow="bus" speed="6.07" length="8.28" shape="-115.24,-20.21 -115.08,-22.51 -114.21,-24.13 -112.63,-25.08 -110.35,-25.36"/>
    </edge>
    <edge id=":3_1" function="internal">
        <lane id=":3_1_0" index="0" allow="bus" speed="3.90" length="2.76" shape="-110.42,-22.16 -111.18,-22.07 -111.71,-21.75 -112.00,-21.21 -112.05,-20.44"/>
    </edge>
    <edge id=":4_0" function="internal">
        <lane id=":4_0_0" index="0" allow="bus" speed="3.91" length="2.49" shape="8.47,-18.15 8.36,-18.82 8.06,-19.30 7.58,-19.60 6.91,-19.71"/>
    </edge>
    <edge id=":4_1" function="internal">
        <lane id=":4_1_0" index="0" allow="bus" speed="6.08" length="7.47" shape="6.97,-22.91 8.98,-22.58 10.43,-21.69 11.33,-20.25 11.67,-18.25"/>
    </edge>

    <edge id="1to2_1" from="2" to="1" priority="-1">
        <lane id="1to2_1_0" index="0" allow="bus" speed="13.89" length="113.04" shape="9.61,84.08 -103.41,82.57"/>
    </edge>
    <edge id="1to2_2" from="1" to="2" priority="-1">
        <lane id="1to2_2_0" index="0" allow="bus" speed="13.89" length="113.04" shape="-103.37,79.37 9.66,80.88"/>
    </edge>
    <edge id="1to3_1" from="3" to="1" priority="-1">
        <lane id="1to3_1_0" index="0" allow="bus" speed="13.89" length="98.59" shape="-112.05,-20.44 -104.95,77.89"/>
    </edge>
    <edge id="1to3_2" from="1" to="3" priority="-1">
        <lane id="1to3_2_0" index="0" allow="bus" speed="13.89" length="98.59" shape="-108.14,78.12 -115.24,-20.21"/>
    </edge>
    <edge id="2to4_1" from="4" to="2" priority="-1">
        <lane id="2to4_1_0" index="0" allow="bus" speed="13.89" length="97.43" shape="11.67,-18.25 14.48,79.14"/>
    </edge>
    <edge id="2to4_2" from="2" to="4" priority="-1">
        <lane id="2to4_2_0" index="0" allow="bus" speed="13.89" length="97.43" shape="11.28,79.23 8.47,-18.15"/>
    </edge>
    <edge id="3to4_1" from="4" to="3" priority="-1">
        <lane id="3to4_1_0" index="0" allow="bus" speed="13.89" length="117.35" shape="6.91,-19.71 -110.42,-22.16"/>
    </edge>
    <edge id="3to4_2" from="3" to="4" priority="-1">
        <lane id="3to4_2_0" index="0" allow="bus" speed="13.89" length="117.35" shape="-110.35,-25.36 6.97,-22.91"/>
    </edge>

    <junction id="1" type="priority" x="-106.33" y="80.93" incLanes="1to2_1_0 1to3_1_0" intLanes=":1_0_0 :1_1_0" shape="-103.44,84.17 -103.35,77.77 -109.73,78.23 -108.85,81.50 -107.95,82.65 -106.75,83.48 -105.24,83.98">
        <request index="0" response="00" foes="00" cont="0"/>
        <request index="1" response="00" foes="00" cont="0"/>
    </junction>
    <junction id="2" type="priority" x="12.97" y="82.52" incLanes="2to4_1_0 1to2_2_0" intLanes=":2_0_0 :2_1_0" shape="16.08,79.10 9.68,79.28 9.59,85.68 11.63,85.52 13.28,84.99 14.55,84.08 15.44,82.79 15.95,81.13">
        <request index="0" response="00" foes="00" cont="0"/>
        <request index="1" response="00" foes="00" cont="0"/>
    </junction>
    <junction id="3" type="priority" x="-113.90" y="-23.83" incLanes="1to3_2_0 3to4_1_0" intLanes=":3_0_0 :3_1_0" shape="-116.84,-20.10 -110.45,-20.56 -110.32,-26.96 -112.45,-26.81 -114.17,-26.26 -115.46,-25.32 -116.34,-23.97 -116.80,-22.24">
        <request index="0" response="00" foes="00" cont="0"/>
        <request index="1" response="00" foes="00" cont="0"/>
    </junction>
    <junction id="4" type="priority" x="9.99" y="-21.24" incLanes="2to4_2_0 3to4_2_0" intLanes=":4_0_0 :4_1_0" shape="6.87,-18.11 13.27,-18.29 12.50,-21.69 11.62,-22.89 10.41,-23.76 8.87,-24.30 7.01,-24.51">
        <request index="0" response="00" foes="00" cont="0"/>
        <request index="1" response="00" foes="00" cont="0"/>
    </junction>

    <connection from="1to2_1" to="1to3_2" fromLane="0" toLane="0" via=":1_0_0" dir="l" state="M"/>
    <connection from="1to2_2" to="2to4_2" fromLane="0" toLane="0" via=":2_1_0" dir="r" state="M"/>
    <connection from="1to3_1" to="1to2_2" fromLane="0" toLane="0" via=":1_1_0" dir="r" state="M"/>
    <connection from="1to3_2" to="3to4_2" fromLane="0" toLane="0" via=":3_0_0" dir="l" state="M"/>
    <connection from="2to4_1" to="1to2_1" fromLane="0" toLane="0" via=":2_0_0" dir="l" state="M"/>
    <connection from="2to4_2" to="3to4_1" fromLane="0" toLane="0" via=":4_0_0" dir="r" state="M"/>
    <connection from="3to4_1" to="1to3_1" fromLane="0" toLane="0" via=":3_1_0" dir="r" state="M"/>
    <connection from="3to4_2" to="2to4_1" fromLane="0" toLane="0" via=":4_1_0" dir="l" state="M"/>

    <connection from=":1_0" to="1to3_2" fromLane="0" toLane="0" dir="l" state="M"/>
    <connection from=":1_1" to="1to2_2" fromLane="0" toLane="0" dir="r" state="M"/>
    <connection from=":2_0" to="1to2_1" fromLane="0" toLane="0" dir="l" state="M"/>
    <connection from=":2_1" to="2to4_2" fromLane="0" toLane="0" dir="r" state="M"/>
    <connection from=":3_0" to="3to4_2" fromLane="0" toLane="0" dir="l" state="M"/>
    <connection from=":3_1" to="1to3_1" fromLane="0" toLane="0" dir="r" state="M"/>
    <connection from=":4_0" to="3to4_1" fromLane="0" toLane="0" dir="r" state="M"/>
    <connection from=":4_1" to="2to4_1" fromLane="0" toLane="0" dir="l" state="M"/>

</net>
