<configuration>
    <input>
       <net-file value="busbasics.net.xml"/>
       <route-files value="busbasics.rou.xml"/>
    </input>
</configuration>