<?xml version="1.0" encoding="UTF-8"?>

<!-- generated on 2025-05-17 18:54:53 by Eclipse SUMO sumo Version 1.23.1
-->

<sumoConfiguration xmlns:xsi="http://www.w3.org/2001/XMLSchema-instance" xsi:noNamespaceSchemaLocation="http://sumo.dlr.de/xsd/sumoConfiguration.xsd">

    <input>
        <net-file value="helloWorld.net.xml"/>
        <route-files value="helloWorld.rou.xml"/>
    </input>

</sumoConfiguration>
