<?xml version="1.0" encoding="UTF-8"?>

<!-- generated on 2025-05-17 18:51:09 by Eclipse SUMO netedit Version 1.23.1
<neteditConfiguration xmlns:xsi="http://www.w3.org/2001/XMLSchema-instance" xsi:noNamespaceSchemaLocation="http://sumo.dlr.de/xsd/neteditConfiguration.xsd">

    <input>
        <sumo-net-file value="C:\Users\trose\Desktop\NetEdit Resources\helloWorld\helloWorld.net.xml"/>
    </input>

    <output>
        <output-file value="C:\Users\trose\Desktop\NetEdit Resources\helloWorld\helloWorld.net.xml"/>
    </output>

    <processing>
        <offset.disable-normalization value="true"/>
    </processing>

    <junctions>
        <no-turnarounds value="true"/>
    </junctions>

    <netedit>
        <new-network value="false"/>
    </netedit>

</neteditConfiguration>
-->

<!--
    SUMO network file structure:
    - <net>: Root element for the network.
    - <location>: Coordinate system and boundaries.
    - <edge>: Road segments (with lanes).
    - <junction>: Intersections and endpoints.
    - <connection>: Allowed movements between edges.
-->

<net version="1.20" junctionCornerDetail="5" limitTurnSpeed="5.50" xmlns:xsi="http://www.w3.org/2001/XMLSchema-instance" xsi:noNamespaceSchemaLocation="http://sumo.dlr.de/xsd/net_file.xsd">

    <!--
        <location>: Defines the coordinate system and boundaries for the network.
        - netOffset: Offset for all coordinates.
        - convBoundary: Bounding box of the network.
        - origBoundary: Original bounding box before conversion.
        - projParameter: Projection parameters.
    -->
    <location netOffset="0.00,0.00" convBoundary="-100.00,0.00,100.00,50.00" origBoundary="10000000000.00,10000000000.00,-10000000000.00,-10000000000.00" projParameter="!"/>

    <!--
        <edge>: Represents a road or internal connection.
        - id: Unique identifier.
        - from/to: Start/end junctions (not for internal edges).
        - function: "internal" for junction-internal edges.
        - priority: Used for right-of-way at junctions.
    -->
    <edge id=":2_0" function="internal">
        <!--
            <lane>: Defines a lane's geometry and properties.
            - id: Unique lane identifier.
            - index: Lane index (0 = rightmost).
            - speed: Max speed (m/s).
            - length: Lane length (meters).
            - width: Lane width (meters).
            - shape: Polyline of (x,y) coordinates.
        -->
        <lane id=":2_0_0" index="0" speed="13.89" length="0.93" width="2.00" shape="-0.45,48.66 -0.22,48.74 0.00,48.77 0.22,48.74 0.45,48.66"/>
    </edge>

    <edge id="1to2" from="1" to="2" priority="-1">
        <lane id="1to2_0" index="0" speed="13.89" length="110.80" width="2.00" shape="-99.55,-0.89 -0.45,48.66"/>
    </edge>
    <edge id="out" from="2" to="3" priority="-1">
        <lane id="out_0" index="0" speed="13.89" length="110.80" width="2.00" shape="0.45,48.66 99.55,-0.89"/>
    </edge>

    <!--
        <junction>: Represents an intersection or endpoint.
        - id: Unique identifier.
        - type: Junction type (e.g., "priority", "dead_end").
        - x/y: Coordinates.
        - incLanes: Incoming lanes.
        - intLanes: Internal lanes (for junction logic).
        - shape: Polygon describing the junction area.
    -->
    <junction id="1" type="dead_end" x="-100.00" y="0.00" incLanes="" intLanes="" shape="-100.00,-0.00 -99.11,-1.79"/>
    <junction id="2" type="priority" x="0.00" y="50.00" incLanes="1to2_0" intLanes=":2_0_0" shape="0.89,49.55 0.00,47.76 -0.89,49.55 -0.30,49.75 0.00,49.78 0.30,49.75 0.60,49.68">
        <!--
            <request>: Right-of-way rules at the junction.
            - index: Request index.
            - response: Which requests must yield.
            - foes: Conflicting requests.
            - cont: Continuous movement flag.
        -->
        <request index="0" response="0" foes="0" cont="0"/>
    </junction>
    <junction id="3" type="dead_end" x="100.00" y="0.00" incLanes="out_0" intLanes="" shape="99.11,-1.79 100.00,0.00"/>

    <!--
        <connection>: Allowed movements between edges/lane pairs.
        - from: Source edge.
        - to: Destination edge.
        - fromLane/toLane: Lane indices.
        - via: Internal lane (if any).
        - dir: Direction (e.g., "r" for right).
        - state: Movement state (e.g., "M" for main).
    -->
    <connection from="1to2" to="out" fromLane="0" toLane="0" via=":2_0_0" dir="r" state="M"/>

    <connection from=":2_0" to="out" fromLane="0" toLane="0" dir="r" state="M"/>

</net>
