<?xml version="1.0" encoding="UTF-8"?>

<!-- generated on 2025-05-19 23:49:21 by Eclipse SUMO netedit Version 1.23.1
<neteditConfiguration xmlns:xsi="http://www.w3.org/2001/XMLSchema-instance" xsi:noNamespaceSchemaLocation="http://sumo.dlr.de/xsd/neteditConfiguration.xsd">

    <input>
        <sumo-net-file value="C:\Users\trose\Workspace\Fellowship &apos;25 Personal\2025-Fellowship-Personal\SUMO\SUMO Tutorials\Bus Stops\busstops.net.xml"/>
    </input>

    <output>
        <output-file value="C:\Users\trose\Workspace\Fellowship &apos;25 Personal\2025-Fellowship-Personal\SUMO\SUMO Tutorials\Bus Stops\busstops.net.xml"/>
    </output>

    <processing>
        <geometry.min-radius.fix.railways value="false"/>
        <geometry.avoid-overlap value="false"/>
        <geometry.max-grade.fix value="false"/>
        <offset.disable-normalization value="true"/>
        <lefthand value="0"/>
    </processing>

    <junctions>
        <no-turnarounds value="true"/>
        <junctions.corner-detail value="5"/>
        <junctions.limit-turn-speed value="5.50"/>
        <rectangular-lane-cut value="0"/>
    </junctions>

    <pedestrian>
        <walkingareas value="0"/>
    </pedestrian>

</neteditConfiguration>
-->

<net version="1.20" junctionCornerDetail="5" limitTurnSpeed="5.50" avoidOverlap="0" xmlns:xsi="http://www.w3.org/2001/XMLSchema-instance" xsi:noNamespaceSchemaLocation="http://sumo.dlr.de/xsd/net_file.xsd">

    <location netOffset="0.00,0.00" convBoundary="0.00,0.00,200.00,200.00" origBoundary="-10000000000.00,-10000000000.00,10000000000.00,10000000000.00" projParameter="!"/>

    <edge id=":1_0" function="internal">
        <lane id=":1_0_0" index="0" speed="3.90" length="2.58" shape="0.00,201.60 -0.70,201.50 -1.20,201.20 -1.50,200.70 -1.60,200.00"/>
    </edge>
    <edge id=":2_0" function="internal">
        <lane id=":2_0_0" index="0" speed="3.90" length="2.58" shape="201.60,200.00 201.50,200.70 201.20,201.20 200.70,201.50 200.00,201.60"/>
    </edge>
    <edge id=":3_0" function="internal">
        <lane id=":3_0_0" index="0" speed="3.90" length="2.58" shape="-1.60,0.00 -1.50,-0.70 -1.20,-1.20 -0.70,-1.50 0.00,-1.60"/>
    </edge>
    <edge id=":4_0" function="internal">
        <lane id=":4_0_0" index="0" speed="3.90" length="2.58" shape="200.00,-1.60 200.70,-1.50 201.20,-1.20 201.50,-0.70 201.60,0.00"/>
    </edge>

    <edge id="E1" from="1" to="3" priority="-1">
        <lane id="E1_0" index="0" allow="pedestrian bus" speed="13.89" length="200.00" width="2.00" shape="-4.20,200.00 -4.20,0.00"/>
        <lane id="E1_1" index="1" speed="13.89" length="200.00" shape="-1.60,200.00 -1.60,0.00"/>
    </edge>
    <edge id="E2" from="2" to="1" priority="-1">
        <lane id="E2_0" index="0" allow="pedestrian" speed="13.89" length="200.00" width="2.00" shape="200.00,204.20 0.00,204.20"/>
        <lane id="E2_1" index="1" speed="13.89" length="200.00" shape="200.00,201.60 0.00,201.60"/>
    </edge>
    <edge id="E3" from="4" to="2" priority="-1">
        <lane id="E3_0" index="0" allow="pedestrian" speed="13.89" length="200.00" width="2.00" shape="204.20,0.00 204.20,200.00"/>
        <lane id="E3_1" index="1" speed="13.89" length="200.00" shape="201.60,0.00 201.60,200.00"/>
    </edge>
    <edge id="E4" from="3" to="4" priority="-1">
        <lane id="E4_0" index="0" allow="pedestrian bus" speed="13.89" length="200.00" width="2.00" shape="0.00,-4.20 200.00,-4.20"/>
        <lane id="E4_1" index="1" speed="13.89" length="200.00" shape="0.00,-1.60 200.00,-1.60"/>
    </edge>

    <junction id="1" type="priority" x="0.00" y="200.00" incLanes="E2_0 E2_1" intLanes=":1_0_0" shape="0.00,205.20 0.00,200.00 -5.20,200.00 -4.62,202.89 -3.90,203.90 -2.89,204.62 -1.59,205.06">
        <request index="0" response="0" foes="0" cont="0"/>
    </junction>
    <junction id="2" type="priority" x="200.00" y="200.00" incLanes="E3_0 E3_1" intLanes=":2_0_0" shape="205.20,200.00 200.00,200.00 200.00,205.20 202.89,204.62 203.90,203.90 204.62,202.89 205.06,201.59">
        <request index="0" response="0" foes="0" cont="0"/>
    </junction>
    <junction id="3" type="priority" x="0.00" y="0.00" incLanes="E1_0 E1_1" intLanes=":3_0_0" shape="-5.20,0.00 0.00,0.00 0.00,-5.20 -2.89,-4.62 -3.90,-3.90 -4.62,-2.89 -5.06,-1.59">
        <request index="0" response="0" foes="0" cont="0"/>
    </junction>
    <junction id="4" type="priority" x="200.00" y="0.00" incLanes="E4_0 E4_1" intLanes=":4_0_0" shape="200.00,0.00 205.20,0.00 204.62,-2.89 203.90,-3.90 202.89,-4.62 201.59,-5.06 200.00,-5.20">
        <request index="0" response="0" foes="0" cont="0"/>
    </junction>

    <connection from="E1" to="E4" fromLane="1" toLane="1" via=":3_0_0" dir="l" state="M"/>
    <connection from="E2" to="E1" fromLane="1" toLane="1" via=":1_0_0" dir="l" state="M"/>
    <connection from="E3" to="E2" fromLane="1" toLane="1" via=":2_0_0" dir="l" state="M"/>
    <connection from="E4" to="E3" fromLane="1" toLane="1" via=":4_0_0" dir="l" state="M"/>

    <connection from=":1_0" to="E1" fromLane="0" toLane="1" dir="l" state="M"/>
    <connection from=":2_0" to="E2" fromLane="0" toLane="1" dir="l" state="M"/>
    <connection from=":3_0" to="E4" fromLane="0" toLane="1" dir="l" state="M"/>
    <connection from=":4_0" to="E3" fromLane="0" toLane="1" dir="l" state="M"/>

</net>
