<?xml version="1.0" encoding="UTF-8"?>

<!-- generated on 2025-05-19 23:12:42 by Eclipse SUMO netedit Version 1.23.1
-->

<additional xmlns:xsi="http://www.w3.org/2001/XMLSchema-instance" xsi:noNamespaceSchemaLocation="http://sumo.dlr.de/xsd/additional_file.xsd">
    <!-- StoppingPlaces -->
    <busStop id="bs_1" lane="E1_1" startPos="95.00" endPos="105.00">
        <param key="emptyColor" value="1,1,1,0"/>
    </busStop>
    <busStop id="bs_2" lane="E2_1" startPos="95.00" endPos="105.00">
        <param key="emptyColor" value="1,1,1,0"/>
    </busStop>
    <busStop id="bs_3" lane="E3_1" startPos="95.00" endPos="105.00">
        <param key="emptyColor" value="1,1,1,0"/>
    </busStop>
    <busStop id="bs_4" lane="E4_1" startPos="95.00" endPos="105.00">
        <param key="emptyColor" value="1,1,1,0"/>
    </busStop>

</additional>
