<?xml version="1.0" encoding="UTF-8"?>

<!-- generated on 2025-05-21 19:50:49 by Eclipse SUMO netedit Version 1.23.1
<neteditConfiguration xmlns:xsi="http://www.w3.org/2001/XMLSchema-instance" xsi:noNamespaceSchemaLocation="http://sumo.dlr.de/xsd/neteditConfiguration.xsd">

    <input>
        <sumo-net-file value="C:\Users\trose\Workspace\Fellowship &apos;25 Personal\2025-Fellowship-Personal\SUMO\NetMap Starting Places\basicintersection.net.xml"/>
    </input>

    <output>
        <output-file value="C:\Users\trose\Workspace\Fellowship &apos;25 Personal\2025-Fellowship-Personal\SUMO\NetMap Starting Places\basicintersection.net.xml"/>
    </output>

    <processing>
        <offset.disable-normalization value="true"/>
    </processing>

    <junctions>
        <no-turnarounds value="true"/>
    </junctions>

    <netedit>
        <new-network value="false"/>
    </netedit>

</neteditConfiguration>
-->

<net version="1.20" junctionCornerDetail="5" limitTurnSpeed="5.50" xmlns:xsi="http://www.w3.org/2001/XMLSchema-instance" xsi:noNamespaceSchemaLocation="http://sumo.dlr.de/xsd/net_file.xsd">

    <location netOffset="0.00,0.00" convBoundary="-100.00,-100.00,100.00,100.00" origBoundary="10000000000.00,10000000000.00,-10000000000.00,-10000000000.00" projParameter="!"/>

    <edge id=":5_0" function="internal">
        <lane id=":5_0_0" index="0" speed="6.51" length="9.03" shape="-1.60,7.20 -1.95,4.75 -3.00,3.00 -4.75,1.95 -7.20,1.60"/>
    </edge>
    <edge id=":5_1" function="internal">
        <lane id=":5_1_0" index="0" speed="13.89" length="14.40" shape="-1.60,7.20 -1.60,-7.20"/>
    </edge>
    <edge id=":5_2" function="internal">
        <lane id=":5_2_0" index="0" speed="8.00" length="4.07" shape="-1.60,7.20 -1.05,3.35 -0.96,3.20"/>
    </edge>
    <edge id=":5_12" function="internal">
        <lane id=":5_12_0" index="0" speed="8.00" length="10.13" shape="-0.96,3.20 0.60,0.60 3.35,-1.05 7.20,-1.60"/>
    </edge>
    <edge id=":5_3" function="internal">
        <lane id=":5_3_0" index="0" speed="6.51" length="9.03" shape="7.20,1.60 4.75,1.95 3.00,3.00 1.95,4.75 1.60,7.20"/>
    </edge>
    <edge id=":5_4" function="internal">
        <lane id=":5_4_0" index="0" speed="13.89" length="14.40" shape="7.20,1.60 -7.20,1.60"/>
    </edge>
    <edge id=":5_5" function="internal">
        <lane id=":5_5_0" index="0" speed="8.00" length="14.19" shape="7.20,1.60 3.35,1.05 0.60,-0.60 -1.05,-3.35 -1.60,-7.20"/>
    </edge>
    <edge id=":5_6" function="internal">
        <lane id=":5_6_0" index="0" speed="6.51" length="9.03" shape="1.60,-7.20 1.95,-4.75 3.00,-3.00 4.75,-1.95 7.20,-1.60"/>
    </edge>
    <edge id=":5_7" function="internal">
        <lane id=":5_7_0" index="0" speed="13.89" length="14.40" shape="1.60,-7.20 1.60,7.20"/>
    </edge>
    <edge id=":5_8" function="internal">
        <lane id=":5_8_0" index="0" speed="8.00" length="4.07" shape="1.60,-7.20 1.05,-3.35 0.96,-3.20"/>
    </edge>
    <edge id=":5_13" function="internal">
        <lane id=":5_13_0" index="0" speed="8.00" length="10.13" shape="0.96,-3.20 -0.60,-0.60 -3.35,1.05 -7.20,1.60"/>
    </edge>
    <edge id=":5_9" function="internal">
        <lane id=":5_9_0" index="0" speed="6.51" length="9.03" shape="-7.20,-1.60 -4.75,-1.95 -3.00,-3.00 -1.95,-4.75 -1.60,-7.20"/>
    </edge>
    <edge id=":5_10" function="internal">
        <lane id=":5_10_0" index="0" speed="13.89" length="14.40" shape="-7.20,-1.60 7.20,-1.60"/>
    </edge>
    <edge id=":5_11" function="internal">
        <lane id=":5_11_0" index="0" speed="8.00" length="14.19" shape="-7.20,-1.60 -3.35,-1.05 -0.60,0.60 1.05,3.35 1.60,7.20"/>
    </edge>

    <edge id="E1" from="2" to="5" priority="-1">
        <lane id="E1_0" index="0" speed="13.89" length="92.80" shape="-100.00,-1.60 -7.20,-1.60"/>
    </edge>
    <edge id="E2" from="5" to="2" priority="-1">
        <lane id="E2_0" index="0" speed="13.89" length="92.80" shape="-7.20,1.60 -100.00,1.60"/>
    </edge>
    <edge id="E3" from="1" to="5" priority="-1">
        <lane id="E3_0" index="0" speed="13.89" length="92.80" shape="-1.60,100.00 -1.60,7.20"/>
    </edge>
    <edge id="E4" from="5" to="1" priority="-1">
        <lane id="E4_0" index="0" speed="13.89" length="92.80" shape="1.60,7.20 1.60,100.00"/>
    </edge>
    <edge id="E5" from="3" to="5" priority="-1">
        <lane id="E5_0" index="0" speed="13.89" length="92.80" shape="100.00,1.60 7.20,1.60"/>
    </edge>
    <edge id="E6" from="5" to="3" priority="-1">
        <lane id="E6_0" index="0" speed="13.89" length="92.80" shape="7.20,-1.60 100.00,-1.60"/>
    </edge>
    <edge id="E7" from="4" to="5" priority="-1">
        <lane id="E7_0" index="0" speed="13.89" length="92.80" shape="1.60,-100.00 1.60,-7.20"/>
    </edge>
    <edge id="E8" from="5" to="4" priority="-1">
        <lane id="E8_0" index="0" speed="13.89" length="92.80" shape="-1.60,-7.20 -1.60,-100.00"/>
    </edge>

    <junction id="1" type="dead_end" x="0.00" y="100.00" incLanes="E4_0" intLanes="" shape="0.00,100.00 3.20,100.00 0.00,100.00"/>
    <junction id="2" type="dead_end" x="-100.00" y="0.00" incLanes="E2_0" intLanes="" shape="-100.00,0.00 -100.00,3.20 -100.00,0.00"/>
    <junction id="3" type="dead_end" x="100.00" y="0.00" incLanes="E6_0" intLanes="" shape="100.00,0.00 100.00,-3.20 100.00,0.00"/>
    <junction id="4" type="dead_end" x="0.00" y="-100.00" incLanes="E8_0" intLanes="" shape="0.00,-100.00 -3.20,-100.00 0.00,-100.00"/>
    <junction id="5" type="priority" x="0.00" y="0.00" incLanes="E3_0 E5_0 E7_0 E1_0" intLanes=":5_0_0 :5_1_0 :5_12_0 :5_3_0 :5_4_0 :5_5_0 :5_6_0 :5_7_0 :5_13_0 :5_9_0 :5_10_0 :5_11_0" shape="-3.20,7.20 3.20,7.20 3.64,4.98 4.20,4.20 4.98,3.64 5.98,3.31 7.20,3.20 7.20,-3.20 4.98,-3.64 4.20,-4.20 3.64,-4.98 3.31,-5.98 3.20,-7.20 -3.20,-7.20 -3.64,-4.98 -4.20,-4.20 -4.98,-3.64 -5.98,-3.31 -7.20,-3.20 -7.20,3.20 -4.98,3.64 -4.20,4.20 -3.64,4.98 -3.31,5.98">
        <request index="0"  response="000000000000" foes="000100010000" cont="0"/>
        <request index="1"  response="000000000000" foes="111100110000" cont="0"/>
        <request index="2"  response="000111000000" foes="110111110000" cont="1"/>
        <request index="3"  response="000010000000" foes="100010000000" cont="0"/>
        <request index="4"  response="000110000111" foes="100110000111" cont="0"/>
        <request index="5"  response="011110000110" foes="111110000110" cont="0"/>
        <request index="6"  response="000000000000" foes="010000000100" cont="0"/>
        <request index="7"  response="000000000000" foes="110000111100" cont="0"/>
        <request index="8"  response="000000000011" foes="110000110111" cont="1"/>
        <request index="9"  response="000000000010" foes="000000100010" cont="0"/>
        <request index="10" response="000111000110" foes="000111100110" cont="0"/>
        <request index="11" response="000110111110" foes="000110111110" cont="0"/>
    </junction>

    <junction id=":5_12_0" type="internal" x="-0.96" y="3.20" incLanes=":5_2_0 E7_0" intLanes=":5_4_0 :5_5_0 :5_6_0 :5_7_0 :5_10_0 :5_11_0"/>
    <junction id=":5_13_0" type="internal" x="0.96" y="-3.20" incLanes=":5_8_0 E3_0" intLanes=":5_0_0 :5_1_0 :5_4_0 :5_5_0 :5_10_0 :5_11_0"/>

    <connection from="E1" to="E8" fromLane="0" toLane="0" via=":5_9_0" dir="r" state="m"/>
    <connection from="E1" to="E6" fromLane="0" toLane="0" via=":5_10_0" dir="s" state="m"/>
    <connection from="E1" to="E4" fromLane="0" toLane="0" via=":5_11_0" dir="l" state="m"/>
    <connection from="E3" to="E2" fromLane="0" toLane="0" via=":5_0_0" dir="r" state="M"/>
    <connection from="E3" to="E8" fromLane="0" toLane="0" via=":5_1_0" dir="s" state="M"/>
    <connection from="E3" to="E6" fromLane="0" toLane="0" via=":5_2_0" dir="l" state="m"/>
    <connection from="E5" to="E4" fromLane="0" toLane="0" via=":5_3_0" dir="r" state="m"/>
    <connection from="E5" to="E2" fromLane="0" toLane="0" via=":5_4_0" dir="s" state="m"/>
    <connection from="E5" to="E8" fromLane="0" toLane="0" via=":5_5_0" dir="l" state="m"/>
    <connection from="E7" to="E6" fromLane="0" toLane="0" via=":5_6_0" dir="r" state="M"/>
    <connection from="E7" to="E4" fromLane="0" toLane="0" via=":5_7_0" dir="s" state="M"/>
    <connection from="E7" to="E2" fromLane="0" toLane="0" via=":5_8_0" dir="l" state="m"/>

    <connection from=":5_0" to="E2" fromLane="0" toLane="0" dir="r" state="M"/>
    <connection from=":5_1" to="E8" fromLane="0" toLane="0" dir="s" state="M"/>
    <connection from=":5_2" to="E6" fromLane="0" toLane="0" via=":5_12_0" dir="l" state="m"/>
    <connection from=":5_12" to="E6" fromLane="0" toLane="0" dir="l" state="M"/>
    <connection from=":5_3" to="E4" fromLane="0" toLane="0" dir="r" state="M"/>
    <connection from=":5_4" to="E2" fromLane="0" toLane="0" dir="s" state="M"/>
    <connection from=":5_5" to="E8" fromLane="0" toLane="0" dir="l" state="M"/>
    <connection from=":5_6" to="E6" fromLane="0" toLane="0" dir="r" state="M"/>
    <connection from=":5_7" to="E4" fromLane="0" toLane="0" dir="s" state="M"/>
    <connection from=":5_8" to="E2" fromLane="0" toLane="0" via=":5_13_0" dir="l" state="m"/>
    <connection from=":5_13" to="E2" fromLane="0" toLane="0" dir="l" state="M"/>
    <connection from=":5_9" to="E8" fromLane="0" toLane="0" dir="r" state="M"/>
    <connection from=":5_10" to="E6" fromLane="0" toLane="0" dir="s" state="M"/>
    <connection from=":5_11" to="E4" fromLane="0" toLane="0" dir="l" state="M"/>

</net>
