<configuration>
    <input>
       <net-file value="circletrack.net.xml"/>
       <route-files value="circletrack.rou.xml"/>
       <additional-files value="circletrack.add.xml"/>
    </input>
</configuration>