<?xml version="1.0" encoding="UTF-8"?>

<!-- generated on 2025-05-19 21:26:12 by Eclipse SUMO netedit Version 1.23.1
<neteditConfiguration xmlns:xsi="http://www.w3.org/2001/XMLSchema-instance" xsi:noNamespaceSchemaLocation="http://sumo.dlr.de/xsd/neteditConfiguration.xsd">

    <input>
        <sumo-net-file value="C:\Users\trose\Workspace\Fellowship &apos;25 Personal\2025-Fellowship-Personal\Autobahn\autobahn.net.xml"/>
    </input>

    <output>
        <output-file value="C:\Users\trose\Workspace\Fellowship &apos;25 Personal\2025-Fellowship-Personal\Autobahn\autobahn.net.xml"/>
    </output>

    <processing>
        <offset.disable-normalization value="true"/>
    </processing>

    <junctions>
        <no-turnarounds value="true"/>
    </junctions>

    <netedit>
        <new-network value="false"/>
    </netedit>

</neteditConfiguration>
-->

<net version="1.20" junctionCornerDetail="5" limitTurnSpeed="5.50" xmlns:xsi="http://www.w3.org/2001/XMLSchema-instance" xsi:noNamespaceSchemaLocation="http://sumo.dlr.de/xsd/net_file.xsd">

    <location netOffset="0.00,0.00" convBoundary="255.03,190.70,1500.00,1500.00" origBoundary="10000000000.00,10000000000.00,-10000000000.00,-10000000000.00" projParameter="!"/>

    <edge id=":J2_0" function="internal">
        <lane id=":J2_0_0" index="0" speed="36.11" length="0.10" shape="1428.09,1162.20 1428.09,1162.20"/>
        <lane id=":J2_0_1" index="1" speed="36.11" length="0.10" shape="1431.24,1161.64 1431.24,1161.64"/>
        <lane id=":J2_0_2" index="2" speed="36.11" length="0.10" shape="1434.39,1161.08 1434.39,1161.08"/>
        <lane id=":J2_0_3" index="3" speed="36.11" length="0.10" shape="1437.54,1160.51 1437.54,1160.51"/>
    </edge>
    <edge id=":J3_0" function="internal">
        <lane id=":J3_0_0" index="0" speed="36.11" length="0.10" shape="437.90,267.77 437.90,267.77"/>
        <lane id=":J3_0_1" index="1" speed="36.11" length="0.10" shape="438.97,264.76 438.97,264.76"/>
        <lane id=":J3_0_2" index="2" speed="36.11" length="0.10" shape="440.05,261.74 440.05,261.74"/>
        <lane id=":J3_0_3" index="3" speed="36.11" length="0.10" shape="441.12,258.73 441.12,258.73"/>
    </edge>

    <edge id="entry" from="J0" to="J2" priority="-1">
        <lane id="entry_0" index="0" speed="36.11" length="345.18" shape="1488.98,1501.98 1428.09,1162.20"/>
        <lane id="entry_1" index="1" speed="36.11" length="345.18" shape="1492.13,1501.41 1431.24,1161.64"/>
        <lane id="entry_2" index="2" speed="36.11" length="345.18" shape="1495.28,1500.85 1434.39,1161.08"/>
        <lane id="entry_3" index="3" speed="36.11" length="345.18" shape="1498.43,1500.28 1437.54,1160.51"/>
    </edge>
    <edge id="exit" from="J3" to="J1" priority="-1">
        <lane id="exit_0" index="0" speed="36.11" length="198.13" shape="437.90,267.77 251.27,201.25"/>
        <lane id="exit_1" index="1" speed="36.11" length="198.13" shape="438.97,264.76 252.35,198.23"/>
        <lane id="exit_2" index="2" speed="36.11" length="198.13" shape="440.05,261.74 253.42,195.22"/>
        <lane id="exit_3" index="3" speed="36.11" length="198.13" shape="441.12,258.73 254.50,192.20"/>
    </edge>
    <edge id="longedge" from="J2" to="J3" priority="-1" shape="1439.12,1160.23 1397.13,925.93 683.32,343.37 441.66,257.22">
        <lane id="longedge_0" index="0" speed="36.11" length="1409.00" shape="1428.09,1162.20 1386.84,931.99 677.74,353.27 437.90,267.77"/>
        <lane id="longedge_1" index="1" speed="36.11" length="1409.00" shape="1431.24,1161.64 1389.78,930.26 679.33,350.44 438.97,264.76"/>
        <lane id="longedge_2" index="2" speed="36.11" length="1409.00" shape="1434.39,1161.08 1392.72,928.53 680.93,347.61 440.05,261.74"/>
        <lane id="longedge_3" index="3" speed="36.11" length="1409.00" shape="1437.54,1160.51 1395.66,926.80 682.52,344.78 441.12,258.73"/>
    </edge>

    <junction id="J0" type="dead_end" x="1500.00" y="1500.00" incLanes="" intLanes="" shape="1500.00,1500.00 1487.40,1502.26"/>
    <junction id="J1" type="dead_end" x="255.03" y="190.70" incLanes="exit_0 exit_1 exit_2 exit_3" intLanes="" shape="250.74,202.75 255.03,190.70"/>
    <junction id="J2" type="priority" x="1439.12" y="1160.23" incLanes="entry_0 entry_1 entry_2 entry_3" intLanes=":J2_0_0 :J2_0_1 :J2_0_2 :J2_0_3" shape="1426.52,1162.49 1439.12,1160.23 1426.52,1162.49">
        <request index="0" response="0000" foes="0000" cont="0"/>
        <request index="1" response="0000" foes="0000" cont="0"/>
        <request index="2" response="0000" foes="0000" cont="0"/>
        <request index="3" response="0000" foes="0000" cont="0"/>
    </junction>
    <junction id="J3" type="priority" x="441.66" y="257.22" incLanes="longedge_0 longedge_1 longedge_2 longedge_3" intLanes=":J3_0_0 :J3_0_1 :J3_0_2 :J3_0_3" shape="437.36,269.28 441.66,257.22 437.36,269.28">
        <request index="0" response="0000" foes="0000" cont="0"/>
        <request index="1" response="0000" foes="0000" cont="0"/>
        <request index="2" response="0000" foes="0000" cont="0"/>
        <request index="3" response="0000" foes="0000" cont="0"/>
    </junction>

    <connection from="entry" to="longedge" fromLane="0" toLane="0" via=":J2_0_0" dir="s" state="M"/>
    <connection from="entry" to="longedge" fromLane="1" toLane="1" via=":J2_0_1" dir="s" state="M"/>
    <connection from="entry" to="longedge" fromLane="2" toLane="2" via=":J2_0_2" dir="s" state="M"/>
    <connection from="entry" to="longedge" fromLane="3" toLane="3" via=":J2_0_3" dir="s" state="M"/>
    <connection from="longedge" to="exit" fromLane="0" toLane="0" via=":J3_0_0" dir="s" state="M"/>
    <connection from="longedge" to="exit" fromLane="1" toLane="1" via=":J3_0_1" dir="s" state="M"/>
    <connection from="longedge" to="exit" fromLane="2" toLane="2" via=":J3_0_2" dir="s" state="M"/>
    <connection from="longedge" to="exit" fromLane="3" toLane="3" via=":J3_0_3" dir="s" state="M"/>

    <connection from=":J2_0" to="longedge" fromLane="0" toLane="0" dir="s" state="M"/>
    <connection from=":J2_0" to="longedge" fromLane="1" toLane="1" dir="s" state="M"/>
    <connection from=":J2_0" to="longedge" fromLane="2" toLane="2" dir="s" state="M"/>
    <connection from=":J2_0" to="longedge" fromLane="3" toLane="3" dir="s" state="M"/>
    <connection from=":J3_0" to="exit" fromLane="0" toLane="0" dir="s" state="M"/>
    <connection from=":J3_0" to="exit" fromLane="1" toLane="1" dir="s" state="M"/>
    <connection from=":J3_0" to="exit" fromLane="2" toLane="2" dir="s" state="M"/>
    <connection from=":J3_0" to="exit" fromLane="3" toLane="3" dir="s" state="M"/>

</net>
