<?xml version="1.0" encoding="UTF-8"?>

<!-- generated on 2025-05-20 02:47:58 by Eclipse SUMO GUI Version 1.23.1
<sumoConfiguration xmlns:xsi="http://www.w3.org/2001/XMLSchema-instance" xsi:noNamespaceSchemaLocation="http://sumo.dlr.de/xsd/sumoConfiguration.xsd">

    <input>
        <net-file value="C:\Users\trose\Workspace\Fellowship &apos;25 Personal\2025-Fellowship-Personal\SUMO\SUMO Tutorials\Port\2025-05-20-02-43-49\osm.net.xml.gz"/>
        <route-files value="C:\Users\trose\Workspace\Fellowship &apos;25 Personal\2025-Fellowship-Personal\SUMO\SUMO Tutorials\Port\2025-05-20-02-43-49\osm_pt.rou.xml,C:\Users\trose\Workspace\Fellowship &apos;25 Personal\2025-Fellowship-Personal\SUMO\SUMO Tutorials\Port\2025-05-20-02-43-49\osm.passenger.trips.xml,C:\Users\trose\Workspace\Fellowship &apos;25 Personal\2025-Fellowship-Personal\SUMO\SUMO Tutorials\Port\2025-05-20-02-43-49\osm.pedestrian.rou.xml,C:\Users\trose\Workspace\Fellowship &apos;25 Personal\2025-Fellowship-Personal\SUMO\SUMO Tutorials\Port\2025-05-20-02-43-49\osm.rail.trips.xml,C:\Users\trose\Workspace\Fellowship &apos;25 Personal\2025-Fellowship-Personal\SUMO\SUMO Tutorials\Port\2025-05-20-02-43-49\osm.ship.trips.xml,C:\Users\trose\Workspace\Fellowship &apos;25 Personal\2025-Fellowship-Personal\SUMO\SUMO Tutorials\Port\2025-05-20-02-43-49\osm.truck.trips.xml"/>
        <additional-files value="C:\Users\trose\Workspace\Fellowship &apos;25 Personal\2025-Fellowship-Personal\SUMO\SUMO Tutorials\Port\2025-05-20-02-43-49\osm.poly.xml.gz,C:\Users\trose\Workspace\Fellowship &apos;25 Personal\2025-Fellowship-Personal\SUMO\SUMO Tutorials\Port\2025-05-20-02-43-49\osm_stops.add.xml,C:\Users\trose\Workspace\Fellowship &apos;25 Personal\2025-Fellowship-Personal\SUMO\SUMO Tutorials\Port\2025-05-20-02-43-49\output.add.xml"/>
    </input>

    <output>
        <tripinfo-output value="C:\Users\trose\Workspace\Fellowship &apos;25 Personal\2025-Fellowship-Personal\SUMO\SUMO Tutorials\Port\2025-05-20-02-43-49\tripinfos.xml"/>
        <stop-output value="C:\Users\trose\Workspace\Fellowship &apos;25 Personal\2025-Fellowship-Personal\SUMO\SUMO Tutorials\Port\2025-05-20-02-43-49\stopinfos.xml"/>
        <statistic-output value="C:\Users\trose\Workspace\Fellowship &apos;25 Personal\2025-Fellowship-Personal\SUMO\SUMO Tutorials\Port\2025-05-20-02-43-49\stats.xml"/>
    </output>

    <processing>
        <ignore-route-errors value="true"/>
        <tls.actuated.jam-threshold value="30"/>
    </processing>

    <routing>
        <device.rerouting.adaptation-steps value="18"/>
        <device.rerouting.adaptation-interval value="10"/>
    </routing>

    <report>
        <verbose value="true"/>
        <duration-log.statistics value="true"/>
        <no-step-log value="true"/>
    </report>

    <gui_only>
        <gui-settings-file value="C:\Users\trose\Workspace\Fellowship &apos;25 Personal\2025-Fellowship-Personal\SUMO\SUMO Tutorials\Port\2025-05-20-02-43-49\osm.view.xml"/>
    </gui_only>

</sumoConfiguration>
-->

<meandata xmlns:xsi="http://www.w3.org/2001/XMLSchema-instance" xsi:noNamespaceSchemaLocation="http://sumo.dlr.de/xsd/meandata_file.xsd">
</meandata>
