<?xml version="1.0" encoding="UTF-8"?>

<!-- generated on 2025-05-20 02:44:17.124210 by osmWebWizard.py v1_23_1+0000-676720d13f6
<configuration>
    <net-file value="C:\Users\trose\Sumo\2025-05-20-02-43-49\osm.net.xml.gz"/>
    <output-trip-file value="C:\Users\trose\Sumo\2025-05-20-02-43-49\osm.ship.trips.xml"/>
    <route-file value="C:\Users\trose\Sumo\2025-05-20-02-43-49\osm.ship.rou.xml"/>
    <prefix value="ship"/>
    <fringe-start-attributes value="departSpeed=&quot;max&quot;"/>
    <vehicle-class value="ship"/>
    <fringe-factor value="40"/>
    <edge-permission value="ship"/>
    <validate value="True"/>
    <insertion-density value="30.0"/>
</configuration>
-->

<routes xmlns:xsi="http://www.w3.org/2001/XMLSchema-instance" xsi:noNamespaceSchemaLocation="http://sumo.dlr.de/xsd/routes_file.xsd">
    <vType id="ship_ship" vClass="ship"/>
    <trip id="ship0" depart="0.00" from="1350174232" to="-1350174232" type="ship_ship" departSpeed="max"/>
    <trip id="ship1" depart="8.80" from="533470203" to="-533470203" type="ship_ship" departSpeed="max"/>
    <trip id="ship2" depart="17.59" from="707334351" to="-1061999836" type="ship_ship" departSpeed="max"/>
    <trip id="ship3" depart="26.39" from="1350174232" to="-239309340" type="ship_ship" departSpeed="max"/>
    <trip id="ship4" depart="35.18" from="1061999836" to="-1061999836" type="ship_ship" departSpeed="max"/>
    <trip id="ship5" depart="43.98" from="533470203" to="-239309340" type="ship_ship" departSpeed="max"/>
    <trip id="ship6" depart="52.77" from="1350174232" to="-239309340" type="ship_ship" departSpeed="max"/>
    <trip id="ship7" depart="61.57" from="707334351" to="-1061999836" type="ship_ship" departSpeed="max"/>
    <trip id="ship8" depart="70.37" from="1061999836" to="-1061999836" type="ship_ship" departSpeed="max"/>
    <trip id="ship9" depart="79.16" from="1350174232" to="-239309340" type="ship_ship" departSpeed="max"/>
    <trip id="ship10" depart="87.96" from="1350174232" to="-1350174232" type="ship_ship" departSpeed="max"/>
    <trip id="ship11" depart="96.75" from="533470203" to="-1350174232" type="ship_ship" departSpeed="max"/>
    <trip id="ship12" depart="105.55" from="1350174232" to="-1350174232" type="ship_ship" departSpeed="max"/>
    <trip id="ship13" depart="114.35" from="533470203" to="-533470203" type="ship_ship" departSpeed="max"/>
    <trip id="ship14" depart="123.14" from="239309340" to="-533470203" type="ship_ship" departSpeed="max"/>
    <trip id="ship15" depart="131.94" from="1350174232" to="-1350174232" type="ship_ship" departSpeed="max"/>
    <trip id="ship16" depart="140.73" from="533470203" to="-1350174232" type="ship_ship" departSpeed="max"/>
    <trip id="ship17" depart="149.53" from="1350174232" to="-1350174232" type="ship_ship" departSpeed="max"/>
    <trip id="ship18" depart="158.32" from="239309340" to="-1350174232" type="ship_ship" departSpeed="max"/>
    <trip id="ship19" depart="167.12" from="1350174232" to="-1350174232" type="ship_ship" departSpeed="max"/>
    <trip id="ship20" depart="175.92" from="1061999836" to="-1061999836" type="ship_ship" departSpeed="max"/>
    <trip id="ship21" depart="184.71" from="533470203" to="-239309340" type="ship_ship" departSpeed="max"/>
    <trip id="ship22" depart="193.51" from="707334351" to="-707334351" type="ship_ship" departSpeed="max"/>
    <trip id="ship23" depart="202.30" from="533470203" to="-239309340" type="ship_ship" departSpeed="max"/>
    <trip id="ship24" depart="211.10" from="1350174232" to="-533470203" type="ship_ship" departSpeed="max"/>
    <trip id="ship25" depart="219.89" from="707334351" to="-707334351" type="ship_ship" departSpeed="max"/>
    <trip id="ship26" depart="228.69" from="1350174232" to="-533470203" type="ship_ship" departSpeed="max"/>
    <trip id="ship27" depart="237.49" from="533470203" to="-239309340" type="ship_ship" departSpeed="max"/>
    <trip id="ship28" depart="246.28" from="533470203" to="-239309340" type="ship_ship" departSpeed="max"/>
    <trip id="ship29" depart="255.08" from="1061999836" to="-707334351" type="ship_ship" departSpeed="max"/>
    <trip id="ship30" depart="263.87" from="707334351" to="-707334351" type="ship_ship" departSpeed="max"/>
    <trip id="ship31" depart="272.67" from="707334351" to="-707334351" type="ship_ship" departSpeed="max"/>
    <trip id="ship32" depart="281.46" from="239309340" to="-239309340" type="ship_ship" departSpeed="max"/>
    <trip id="ship33" depart="290.26" from="239309340" to="-1350174232" type="ship_ship" departSpeed="max"/>
    <trip id="ship34" depart="299.06" from="239309340" to="-533470203" type="ship_ship" departSpeed="max"/>
    <trip id="ship35" depart="307.85" from="1350174232" to="-1350174232" type="ship_ship" departSpeed="max"/>
    <trip id="ship36" depart="316.65" from="239309340" to="-239309340" type="ship_ship" departSpeed="max"/>
    <trip id="ship37" depart="325.44" from="1350174232" to="-239309340" type="ship_ship" departSpeed="max"/>
    <trip id="ship38" depart="334.24" from="1350174232" to="-1350174232" type="ship_ship" departSpeed="max"/>
    <trip id="ship39" depart="343.04" from="707334351" to="-1061999836" type="ship_ship" departSpeed="max"/>
    <trip id="ship40" depart="351.83" from="1350174232" to="-533470203" type="ship_ship" departSpeed="max"/>
    <trip id="ship41" depart="360.63" from="239309340" to="-533470203" type="ship_ship" departSpeed="max"/>
    <trip id="ship42" depart="369.42" from="707334351" to="-1061999836" type="ship_ship" departSpeed="max"/>
    <trip id="ship43" depart="378.22" from="239309340" to="-239309340" type="ship_ship" departSpeed="max"/>
    <trip id="ship44" depart="387.01" from="533470203" to="-533470203" type="ship_ship" departSpeed="max"/>
    <trip id="ship45" depart="395.81" from="707334351" to="-1061999836" type="ship_ship" departSpeed="max"/>
    <trip id="ship46" depart="404.61" from="239309340" to="-1350174232" type="ship_ship" departSpeed="max"/>
    <trip id="ship47" depart="413.40" from="239309340" to="-1350174232" type="ship_ship" departSpeed="max"/>
    <trip id="ship48" depart="422.20" from="707334351" to="-707334351" type="ship_ship" departSpeed="max"/>
    <trip id="ship49" depart="430.99" from="707334351" to="-707334351" type="ship_ship" departSpeed="max"/>
    <trip id="ship50" depart="439.79" from="707334351" to="-1061999836" type="ship_ship" departSpeed="max"/>
    <trip id="ship51" depart="448.58" from="239309340" to="-1350174232" type="ship_ship" departSpeed="max"/>
    <trip id="ship52" depart="457.38" from="1350174232" to="-533470203" type="ship_ship" departSpeed="max"/>
    <trip id="ship53" depart="466.18" from="239309340" to="-239309340" type="ship_ship" departSpeed="max"/>
    <trip id="ship54" depart="474.97" from="707334351" to="-707334351" type="ship_ship" departSpeed="max"/>
    <trip id="ship55" depart="483.77" from="239309340" to="-533470203" type="ship_ship" departSpeed="max"/>
    <trip id="ship56" depart="492.56" from="239309340" to="-533470203" type="ship_ship" departSpeed="max"/>
    <trip id="ship57" depart="501.36" from="1061999836" to="-707334351" type="ship_ship" departSpeed="max"/>
    <trip id="ship58" depart="510.16" from="1061999836" to="-1061999836" type="ship_ship" departSpeed="max"/>
    <trip id="ship59" depart="518.95" from="239309340" to="-533470203" type="ship_ship" departSpeed="max"/>
    <trip id="ship60" depart="527.75" from="239309340" to="-533470203" type="ship_ship" departSpeed="max"/>
    <trip id="ship61" depart="536.54" from="239309340" to="-239309340" type="ship_ship" departSpeed="max"/>
    <trip id="ship62" depart="545.34" from="1350174232" to="-533470203" type="ship_ship" departSpeed="max"/>
    <trip id="ship63" depart="554.13" from="1350174232" to="-1350174232" type="ship_ship" departSpeed="max"/>
    <trip id="ship64" depart="562.93" from="533470203" to="-1350174232" type="ship_ship" departSpeed="max"/>
    <trip id="ship65" depart="571.73" from="1350174232" to="-533470203" type="ship_ship" departSpeed="max"/>
    <trip id="ship66" depart="580.52" from="707334351" to="-707334351" type="ship_ship" departSpeed="max"/>
    <trip id="ship67" depart="589.32" from="707334351" to="-707334351" type="ship_ship" departSpeed="max"/>
    <trip id="ship68" depart="598.11" from="1061999836" to="-1061999836" type="ship_ship" departSpeed="max"/>
    <trip id="ship69" depart="606.91" from="1350174232" to="-533470203" type="ship_ship" departSpeed="max"/>
    <trip id="ship70" depart="615.70" from="533470203" to="-1350174232" type="ship_ship" departSpeed="max"/>
    <trip id="ship71" depart="624.50" from="533470203" to="-1350174232" type="ship_ship" departSpeed="max"/>
    <trip id="ship72" depart="633.30" from="707334351" to="-1061999836" type="ship_ship" departSpeed="max"/>
    <trip id="ship73" depart="642.09" from="239309340" to="-1350174232" type="ship_ship" departSpeed="max"/>
    <trip id="ship74" depart="650.89" from="533470203" to="-1350174232" type="ship_ship" departSpeed="max"/>
    <trip id="ship75" depart="659.68" from="533470203" to="-239309340" type="ship_ship" departSpeed="max"/>
    <trip id="ship76" depart="668.48" from="1061999836" to="-707334351" type="ship_ship" departSpeed="max"/>
    <trip id="ship77" depart="677.27" from="1061999836" to="-1061999836" type="ship_ship" departSpeed="max"/>
    <trip id="ship78" depart="686.07" from="239309340" to="-533470203" type="ship_ship" departSpeed="max"/>
    <trip id="ship79" depart="694.87" from="1061999836" to="-707334351" type="ship_ship" departSpeed="max"/>
    <trip id="ship80" depart="703.66" from="707334351" to="-707334351" type="ship_ship" departSpeed="max"/>
    <trip id="ship81" depart="712.46" from="707334351" to="-707334351" type="ship_ship" departSpeed="max"/>
    <trip id="ship82" depart="721.25" from="707334351" to="-707334351" type="ship_ship" departSpeed="max"/>
    <trip id="ship83" depart="730.05" from="707334351" to="-707334351" type="ship_ship" departSpeed="max"/>
    <trip id="ship84" depart="738.85" from="239309340" to="-1350174232" type="ship_ship" departSpeed="max"/>
    <trip id="ship85" depart="747.64" from="533470203" to="-1350174232" type="ship_ship" departSpeed="max"/>
    <trip id="ship86" depart="756.44" from="1061999836" to="-1061999836" type="ship_ship" departSpeed="max"/>
    <trip id="ship87" depart="765.23" from="533470203" to="-1350174232" type="ship_ship" departSpeed="max"/>
    <trip id="ship88" depart="774.03" from="707334351" to="-1061999836" type="ship_ship" departSpeed="max"/>
    <trip id="ship89" depart="782.82" from="707334351" to="-1061999836" type="ship_ship" departSpeed="max"/>
    <trip id="ship90" depart="791.62" from="533470203" to="-1350174232" type="ship_ship" departSpeed="max"/>
    <trip id="ship91" depart="800.42" from="533470203" to="-239309340" type="ship_ship" departSpeed="max"/>
    <trip id="ship92" depart="809.21" from="1350174232" to="-239309340" type="ship_ship" departSpeed="max"/>
    <trip id="ship93" depart="818.01" from="1350174232" to="-533470203" type="ship_ship" departSpeed="max"/>
    <trip id="ship94" depart="826.80" from="1061999836" to="-707334351" type="ship_ship" departSpeed="max"/>
    <trip id="ship95" depart="835.60" from="239309340" to="-533470203" type="ship_ship" departSpeed="max"/>
    <trip id="ship96" depart="844.39" from="533470203" to="-533470203" type="ship_ship" departSpeed="max"/>
    <trip id="ship97" depart="853.19" from="533470203" to="-1350174232" type="ship_ship" departSpeed="max"/>
    <trip id="ship98" depart="861.99" from="533470203" to="-1350174232" type="ship_ship" departSpeed="max"/>
    <trip id="ship99" depart="870.78" from="1350174232" to="-239309340" type="ship_ship" departSpeed="max"/>
    <trip id="ship100" depart="879.58" from="239309340" to="-1350174232" type="ship_ship" departSpeed="max"/>
    <trip id="ship101" depart="888.37" from="1350174232" to="-239309340" type="ship_ship" departSpeed="max"/>
    <trip id="ship102" depart="897.17" from="239309340" to="-239309340" type="ship_ship" departSpeed="max"/>
    <trip id="ship103" depart="905.97" from="533470203" to="-239309340" type="ship_ship" departSpeed="max"/>
    <trip id="ship104" depart="914.76" from="239309340" to="-1350174232" type="ship_ship" departSpeed="max"/>
    <trip id="ship105" depart="923.56" from="533470203" to="-1350174232" type="ship_ship" departSpeed="max"/>
    <trip id="ship106" depart="932.35" from="533470203" to="-1350174232" type="ship_ship" departSpeed="max"/>
    <trip id="ship107" depart="941.15" from="1061999836" to="-1061999836" type="ship_ship" departSpeed="max"/>
    <trip id="ship108" depart="949.94" from="1350174232" to="-239309340" type="ship_ship" departSpeed="max"/>
    <trip id="ship109" depart="958.74" from="707334351" to="-1061999836" type="ship_ship" departSpeed="max"/>
    <trip id="ship110" depart="967.54" from="239309340" to="-533470203" type="ship_ship" departSpeed="max"/>
    <trip id="ship111" depart="976.33" from="239309340" to="-1350174232" type="ship_ship" departSpeed="max"/>
    <trip id="ship112" depart="985.13" from="533470203" to="-533470203" type="ship_ship" departSpeed="max"/>
    <trip id="ship113" depart="993.92" from="1061999836" to="-707334351" type="ship_ship" departSpeed="max"/>
    <trip id="ship114" depart="1002.72" from="533470203" to="-239309340" type="ship_ship" departSpeed="max"/>
    <trip id="ship115" depart="1011.51" from="239309340" to="-1350174232" type="ship_ship" departSpeed="max"/>
    <trip id="ship116" depart="1020.31" from="1350174232" to="-533470203" type="ship_ship" departSpeed="max"/>
    <trip id="ship117" depart="1029.11" from="533470203" to="-239309340" type="ship_ship" departSpeed="max"/>
    <trip id="ship118" depart="1037.90" from="533470203" to="-1350174232" type="ship_ship" departSpeed="max"/>
    <trip id="ship119" depart="1046.70" from="1350174232" to="-1350174232" type="ship_ship" departSpeed="max"/>
    <trip id="ship120" depart="1055.49" from="1350174232" to="-533470203" type="ship_ship" departSpeed="max"/>
    <trip id="ship121" depart="1064.29" from="239309340" to="-239309340" type="ship_ship" departSpeed="max"/>
    <trip id="ship122" depart="1073.08" from="239309340" to="-1350174232" type="ship_ship" departSpeed="max"/>
    <trip id="ship123" depart="1081.88" from="239309340" to="-533470203" type="ship_ship" departSpeed="max"/>
    <trip id="ship124" depart="1090.68" from="1350174232" to="-533470203" type="ship_ship" departSpeed="max"/>
    <trip id="ship125" depart="1099.47" from="707334351" to="-707334351" type="ship_ship" departSpeed="max"/>
    <trip id="ship126" depart="1108.27" from="239309340" to="-533470203" type="ship_ship" departSpeed="max"/>
    <trip id="ship127" depart="1117.06" from="239309340" to="-533470203" type="ship_ship" departSpeed="max"/>
    <trip id="ship128" depart="1125.86" from="1350174232" to="-1350174232" type="ship_ship" departSpeed="max"/>
    <trip id="ship129" depart="1134.66" from="1350174232" to="-533470203" type="ship_ship" departSpeed="max"/>
    <trip id="ship130" depart="1143.45" from="1350174232" to="-239309340" type="ship_ship" departSpeed="max"/>
    <trip id="ship131" depart="1152.25" from="1350174232" to="-1350174232" type="ship_ship" departSpeed="max"/>
    <trip id="ship132" depart="1161.04" from="533470203" to="-1350174232" type="ship_ship" departSpeed="max"/>
    <trip id="ship133" depart="1169.84" from="533470203" to="-533470203" type="ship_ship" departSpeed="max"/>
    <trip id="ship134" depart="1178.63" from="533470203" to="-533470203" type="ship_ship" departSpeed="max"/>
    <trip id="ship135" depart="1187.43" from="707334351" to="-1061999836" type="ship_ship" departSpeed="max"/>
    <trip id="ship136" depart="1196.23" from="1061999836" to="-1061999836" type="ship_ship" departSpeed="max"/>
    <trip id="ship137" depart="1205.02" from="239309340" to="-1350174232" type="ship_ship" departSpeed="max"/>
    <trip id="ship138" depart="1213.82" from="533470203" to="-533470203" type="ship_ship" departSpeed="max"/>
    <trip id="ship139" depart="1222.61" from="707334351" to="-707334351" type="ship_ship" departSpeed="max"/>
    <trip id="ship140" depart="1231.41" from="1061999836" to="-1061999836" type="ship_ship" departSpeed="max"/>
    <trip id="ship141" depart="1240.20" from="1350174232" to="-533470203" type="ship_ship" departSpeed="max"/>
    <trip id="ship142" depart="1249.00" from="533470203" to="-533470203" type="ship_ship" departSpeed="max"/>
    <trip id="ship143" depart="1257.80" from="1061999836" to="-707334351" type="ship_ship" departSpeed="max"/>
    <trip id="ship144" depart="1266.59" from="533470203" to="-1350174232" type="ship_ship" departSpeed="max"/>
    <trip id="ship145" depart="1275.39" from="239309340" to="-1350174232" type="ship_ship" departSpeed="max"/>
    <trip id="ship146" depart="1284.18" from="239309340" to="-1350174232" type="ship_ship" departSpeed="max"/>
    <trip id="ship147" depart="1292.98" from="707334351" to="-707334351" type="ship_ship" departSpeed="max"/>
    <trip id="ship148" depart="1301.78" from="1061999836" to="-707334351" type="ship_ship" departSpeed="max"/>
    <trip id="ship149" depart="1310.57" from="533470203" to="-239309340" type="ship_ship" departSpeed="max"/>
    <trip id="ship150" depart="1319.37" from="239309340" to="-239309340" type="ship_ship" departSpeed="max"/>
    <trip id="ship151" depart="1328.16" from="239309340" to="-533470203" type="ship_ship" departSpeed="max"/>
    <trip id="ship152" depart="1336.96" from="707334351" to="-1061999836" type="ship_ship" departSpeed="max"/>
    <trip id="ship153" depart="1345.75" from="239309340" to="-533470203" type="ship_ship" departSpeed="max"/>
    <trip id="ship154" depart="1354.55" from="707334351" to="-1061999836" type="ship_ship" departSpeed="max"/>
    <trip id="ship155" depart="1363.35" from="1350174232" to="-533470203" type="ship_ship" departSpeed="max"/>
    <trip id="ship156" depart="1372.14" from="533470203" to="-1350174232" type="ship_ship" departSpeed="max"/>
    <trip id="ship157" depart="1380.94" from="1061999836" to="-707334351" type="ship_ship" departSpeed="max"/>
    <trip id="ship158" depart="1389.73" from="239309340" to="-533470203" type="ship_ship" departSpeed="max"/>
    <trip id="ship159" depart="1398.53" from="533470203" to="-533470203" type="ship_ship" departSpeed="max"/>
    <trip id="ship160" depart="1407.32" from="239309340" to="-533470203" type="ship_ship" departSpeed="max"/>
    <trip id="ship161" depart="1416.12" from="533470203" to="-1350174232" type="ship_ship" departSpeed="max"/>
    <trip id="ship162" depart="1424.92" from="239309340" to="-239309340" type="ship_ship" departSpeed="max"/>
    <trip id="ship163" depart="1433.71" from="239309340" to="-239309340" type="ship_ship" departSpeed="max"/>
    <trip id="ship164" depart="1442.51" from="533470203" to="-1350174232" type="ship_ship" departSpeed="max"/>
    <trip id="ship165" depart="1451.30" from="533470203" to="-1350174232" type="ship_ship" departSpeed="max"/>
    <trip id="ship166" depart="1460.10" from="1061999836" to="-1061999836" type="ship_ship" departSpeed="max"/>
    <trip id="ship167" depart="1468.89" from="239309340" to="-533470203" type="ship_ship" departSpeed="max"/>
    <trip id="ship168" depart="1477.69" from="239309340" to="-533470203" type="ship_ship" departSpeed="max"/>
    <trip id="ship169" depart="1486.49" from="1061999836" to="-1061999836" type="ship_ship" departSpeed="max"/>
    <trip id="ship170" depart="1495.28" from="239309340" to="-1350174232" type="ship_ship" departSpeed="max"/>
    <trip id="ship171" depart="1504.08" from="239309340" to="-239309340" type="ship_ship" departSpeed="max"/>
    <trip id="ship172" depart="1512.87" from="1061999836" to="-1061999836" type="ship_ship" departSpeed="max"/>
    <trip id="ship173" depart="1521.67" from="1061999836" to="-1061999836" type="ship_ship" departSpeed="max"/>
    <trip id="ship174" depart="1530.47" from="239309340" to="-1350174232" type="ship_ship" departSpeed="max"/>
    <trip id="ship175" depart="1539.26" from="707334351" to="-1061999836" type="ship_ship" departSpeed="max"/>
    <trip id="ship176" depart="1548.06" from="533470203" to="-533470203" type="ship_ship" departSpeed="max"/>
    <trip id="ship177" depart="1556.85" from="533470203" to="-1350174232" type="ship_ship" departSpeed="max"/>
    <trip id="ship178" depart="1565.65" from="239309340" to="-239309340" type="ship_ship" departSpeed="max"/>
    <trip id="ship179" depart="1574.44" from="533470203" to="-533470203" type="ship_ship" departSpeed="max"/>
    <trip id="ship180" depart="1583.24" from="1350174232" to="-1350174232" type="ship_ship" departSpeed="max"/>
    <trip id="ship181" depart="1592.04" from="1061999836" to="-1061999836" type="ship_ship" departSpeed="max"/>
    <trip id="ship182" depart="1600.83" from="239309340" to="-1350174232" type="ship_ship" departSpeed="max"/>
    <trip id="ship183" depart="1609.63" from="1350174232" to="-533470203" type="ship_ship" departSpeed="max"/>
    <trip id="ship184" depart="1618.42" from="533470203" to="-239309340" type="ship_ship" departSpeed="max"/>
    <trip id="ship185" depart="1627.22" from="533470203" to="-533470203" type="ship_ship" departSpeed="max"/>
    <trip id="ship186" depart="1636.01" from="239309340" to="-239309340" type="ship_ship" departSpeed="max"/>
    <trip id="ship187" depart="1644.81" from="707334351" to="-1061999836" type="ship_ship" departSpeed="max"/>
    <trip id="ship188" depart="1653.61" from="533470203" to="-239309340" type="ship_ship" departSpeed="max"/>
    <trip id="ship189" depart="1662.40" from="533470203" to="-533470203" type="ship_ship" departSpeed="max"/>
    <trip id="ship190" depart="1671.20" from="1350174232" to="-1350174232" type="ship_ship" departSpeed="max"/>
    <trip id="ship191" depart="1679.99" from="1061999836" to="-707334351" type="ship_ship" departSpeed="max"/>
    <trip id="ship192" depart="1688.79" from="707334351" to="-707334351" type="ship_ship" departSpeed="max"/>
    <trip id="ship193" depart="1697.59" from="533470203" to="-1350174232" type="ship_ship" departSpeed="max"/>
    <trip id="ship194" depart="1706.38" from="239309340" to="-533470203" type="ship_ship" departSpeed="max"/>
    <trip id="ship195" depart="1715.18" from="707334351" to="-1061999836" type="ship_ship" departSpeed="max"/>
    <trip id="ship196" depart="1723.97" from="239309340" to="-533470203" type="ship_ship" departSpeed="max"/>
    <trip id="ship197" depart="1732.77" from="1350174232" to="-1350174232" type="ship_ship" departSpeed="max"/>
    <trip id="ship198" depart="1741.56" from="1350174232" to="-533470203" type="ship_ship" departSpeed="max"/>
    <trip id="ship199" depart="1750.36" from="239309340" to="-1350174232" type="ship_ship" departSpeed="max"/>
    <trip id="ship200" depart="1759.16" from="239309340" to="-239309340" type="ship_ship" departSpeed="max"/>
    <trip id="ship201" depart="1767.95" from="239309340" to="-239309340" type="ship_ship" departSpeed="max"/>
    <trip id="ship202" depart="1776.75" from="533470203" to="-533470203" type="ship_ship" departSpeed="max"/>
    <trip id="ship203" depart="1785.54" from="533470203" to="-1350174232" type="ship_ship" departSpeed="max"/>
    <trip id="ship204" depart="1794.34" from="239309340" to="-533470203" type="ship_ship" departSpeed="max"/>
    <trip id="ship205" depart="1803.13" from="1061999836" to="-707334351" type="ship_ship" departSpeed="max"/>
    <trip id="ship206" depart="1811.93" from="533470203" to="-1350174232" type="ship_ship" departSpeed="max"/>
    <trip id="ship207" depart="1820.73" from="707334351" to="-707334351" type="ship_ship" departSpeed="max"/>
    <trip id="ship208" depart="1829.52" from="533470203" to="-239309340" type="ship_ship" departSpeed="max"/>
    <trip id="ship209" depart="1838.32" from="239309340" to="-1350174232" type="ship_ship" departSpeed="max"/>
    <trip id="ship210" depart="1847.11" from="707334351" to="-707334351" type="ship_ship" departSpeed="max"/>
    <trip id="ship211" depart="1855.91" from="1350174232" to="-533470203" type="ship_ship" departSpeed="max"/>
    <trip id="ship212" depart="1864.70" from="1350174232" to="-1350174232" type="ship_ship" departSpeed="max"/>
    <trip id="ship213" depart="1873.50" from="239309340" to="-1350174232" type="ship_ship" departSpeed="max"/>
    <trip id="ship214" depart="1882.30" from="239309340" to="-239309340" type="ship_ship" departSpeed="max"/>
    <trip id="ship215" depart="1891.09" from="239309340" to="-1350174232" type="ship_ship" departSpeed="max"/>
    <trip id="ship216" depart="1899.89" from="239309340" to="-1350174232" type="ship_ship" departSpeed="max"/>
    <trip id="ship217" depart="1908.68" from="533470203" to="-533470203" type="ship_ship" departSpeed="max"/>
    <trip id="ship218" depart="1917.48" from="239309340" to="-239309340" type="ship_ship" departSpeed="max"/>
    <trip id="ship219" depart="1926.28" from="533470203" to="-239309340" type="ship_ship" departSpeed="max"/>
    <trip id="ship220" depart="1935.07" from="1350174232" to="-533470203" type="ship_ship" departSpeed="max"/>
    <trip id="ship221" depart="1943.87" from="707334351" to="-707334351" type="ship_ship" departSpeed="max"/>
    <trip id="ship222" depart="1952.66" from="1350174232" to="-1350174232" type="ship_ship" departSpeed="max"/>
    <trip id="ship223" depart="1961.46" from="533470203" to="-533470203" type="ship_ship" departSpeed="max"/>
    <trip id="ship224" depart="1970.25" from="707334351" to="-1061999836" type="ship_ship" departSpeed="max"/>
    <trip id="ship225" depart="1979.05" from="707334351" to="-707334351" type="ship_ship" departSpeed="max"/>
    <trip id="ship226" depart="1987.85" from="533470203" to="-239309340" type="ship_ship" departSpeed="max"/>
    <trip id="ship227" depart="1996.64" from="1350174232" to="-1350174232" type="ship_ship" departSpeed="max"/>
    <trip id="ship228" depart="2005.44" from="239309340" to="-533470203" type="ship_ship" departSpeed="max"/>
    <trip id="ship229" depart="2014.23" from="1061999836" to="-1061999836" type="ship_ship" departSpeed="max"/>
    <trip id="ship230" depart="2023.03" from="1350174232" to="-1350174232" type="ship_ship" departSpeed="max"/>
    <trip id="ship231" depart="2031.82" from="1061999836" to="-707334351" type="ship_ship" departSpeed="max"/>
    <trip id="ship232" depart="2040.62" from="1350174232" to="-239309340" type="ship_ship" departSpeed="max"/>
    <trip id="ship233" depart="2049.42" from="533470203" to="-239309340" type="ship_ship" departSpeed="max"/>
    <trip id="ship234" depart="2058.21" from="239309340" to="-1350174232" type="ship_ship" departSpeed="max"/>
    <trip id="ship235" depart="2067.01" from="239309340" to="-239309340" type="ship_ship" departSpeed="max"/>
    <trip id="ship236" depart="2075.80" from="1350174232" to="-239309340" type="ship_ship" departSpeed="max"/>
    <trip id="ship237" depart="2084.60" from="533470203" to="-533470203" type="ship_ship" departSpeed="max"/>
    <trip id="ship238" depart="2093.40" from="1350174232" to="-533470203" type="ship_ship" departSpeed="max"/>
    <trip id="ship239" depart="2102.19" from="533470203" to="-1350174232" type="ship_ship" departSpeed="max"/>
    <trip id="ship240" depart="2110.99" from="533470203" to="-533470203" type="ship_ship" departSpeed="max"/>
    <trip id="ship241" depart="2119.78" from="533470203" to="-533470203" type="ship_ship" departSpeed="max"/>
    <trip id="ship242" depart="2128.58" from="533470203" to="-1350174232" type="ship_ship" departSpeed="max"/>
    <trip id="ship243" depart="2137.37" from="239309340" to="-239309340" type="ship_ship" departSpeed="max"/>
    <trip id="ship244" depart="2146.17" from="1350174232" to="-533470203" type="ship_ship" departSpeed="max"/>
    <trip id="ship245" depart="2154.97" from="1061999836" to="-1061999836" type="ship_ship" departSpeed="max"/>
    <trip id="ship246" depart="2163.76" from="707334351" to="-1061999836" type="ship_ship" departSpeed="max"/>
    <trip id="ship247" depart="2172.56" from="707334351" to="-707334351" type="ship_ship" departSpeed="max"/>
    <trip id="ship248" depart="2181.35" from="707334351" to="-707334351" type="ship_ship" departSpeed="max"/>
    <trip id="ship249" depart="2190.15" from="1350174232" to="-533470203" type="ship_ship" departSpeed="max"/>
    <trip id="ship250" depart="2198.94" from="239309340" to="-533470203" type="ship_ship" departSpeed="max"/>
    <trip id="ship251" depart="2207.74" from="533470203" to="-239309340" type="ship_ship" departSpeed="max"/>
    <trip id="ship252" depart="2216.54" from="707334351" to="-707334351" type="ship_ship" departSpeed="max"/>
    <trip id="ship253" depart="2225.33" from="1061999836" to="-707334351" type="ship_ship" departSpeed="max"/>
    <trip id="ship254" depart="2234.13" from="707334351" to="-707334351" type="ship_ship" departSpeed="max"/>
    <trip id="ship255" depart="2242.92" from="1350174232" to="-239309340" type="ship_ship" departSpeed="max"/>
    <trip id="ship256" depart="2251.72" from="1061999836" to="-707334351" type="ship_ship" departSpeed="max"/>
    <trip id="ship257" depart="2260.51" from="1350174232" to="-239309340" type="ship_ship" departSpeed="max"/>
    <trip id="ship258" depart="2269.31" from="1061999836" to="-707334351" type="ship_ship" departSpeed="max"/>
    <trip id="ship259" depart="2278.11" from="533470203" to="-533470203" type="ship_ship" departSpeed="max"/>
    <trip id="ship260" depart="2286.90" from="239309340" to="-239309340" type="ship_ship" departSpeed="max"/>
    <trip id="ship261" depart="2295.70" from="707334351" to="-1061999836" type="ship_ship" departSpeed="max"/>
    <trip id="ship262" depart="2304.49" from="1350174232" to="-239309340" type="ship_ship" departSpeed="max"/>
    <trip id="ship263" depart="2313.29" from="707334351" to="-707334351" type="ship_ship" departSpeed="max"/>
    <trip id="ship264" depart="2322.09" from="1350174232" to="-1350174232" type="ship_ship" departSpeed="max"/>