<?xml version="1.0" encoding="UTF-8"?>

<!-- generated on 2025-05-20 02:44:15.769022 by osmWebWizard.py v1_23_1+0000-676720d13f6
<configuration>
    <net-file value="C:\Users\trose\Sumo\2025-05-20-02-43-49\osm.net.xml.gz"/>
    <output-trip-file value="C:\Users\trose\Sumo\2025-05-20-02-43-49\osm.passenger.trips.xml"/>
    <route-file value="C:\Users\trose\Sumo\2025-05-20-02-43-49\osm.passenger.rou.xml"/>
    <prefix value="veh"/>
    <trip-attributes value="departLane=&quot;best&quot;"/>
    <fringe-start-attributes value="departSpeed=&quot;max&quot;"/>
    <vehicle-class value="passenger"/>
    <lanes value="True"/>
    <fringe-factor value="5"/>
    <allow-fringe.min-length value="1000.0"/>
    <edge-permission value="passenger"/>
    <via-edge-types value="highway.motorway,highway.motorway_link,highway.trunk_link,highway.primary_link,highway.secondary_link,highway.tertiary_link"/>
    <min-distance value="300.0"/>
    <min-distance.fringe value="10.0"/>
    <remove-loops value="True"/>
    <validate value="True"/>
    <insertion-density value="20.0"/>
</configuration>
-->

<routes xmlns:xsi="http://www.w3.org/2001/XMLSchema-instance" xsi:noNamespaceSchemaLocation="http://sumo.dlr.de/xsd/routes_file.xsd">
    <vType id="veh_passenger" vClass="passenger"/>
    <trip id="veh0" depart="0.00" from="-39946669#2" to="-39946669#0" departLane="best" type="veh_passenger"/>
    <trip id="veh1" depart="19.99" from="276781728#0" to="276781728#3" departLane="best" type="veh_passenger" departSpeed="max"/>
    <trip id="veh2" depart="39.98" from="63036080#1" to="-197841301#0" departLane="best" type="veh_passenger"/>
    <trip id="veh3" depart="59.97" from="197841301#3" to="150768635#3" departLane="best" type="veh_passenger"/>
    <trip id="veh4" depart="79.96" from="-276781728#3" to="197841301#3" departLane="best" type="veh_passenger" departSpeed="max"/>
    <trip id="veh5" depart="99.95" from="50833122#0" to="-139377230" departLane="best" type="veh_passenger"/>
    <trip id="veh6" depart="119.94" from="50833122#0" to="276781728#3" departLane="best" type="veh_passenger"/>
    <trip id="veh7" depart="139.93" from="-63036080#3" to="-197841301#5" departLane="best" type="veh_passenger"/>
    <trip id="veh8" depart="159.92" from="-150768635#3" to="-197841301#0" departLane="best" type="veh_passenger" departSpeed="max"/>
    <trip id="veh9" depart="179.91" from="50833122#0" to="277007471#2" departLane="best" type="veh_passenger"/>
    <trip id="veh10" depart="199.90" from="276781728#0" to="-150768635#2" departLane="best" type="veh_passenger" departSpeed="max"/>
    <trip id="veh11" depart="219.89" from="197841301#2" to="-63036080#9" departLane="best" type="veh_passenger"/>
    <trip id="veh12" depart="239.88" from="-24556602#2" to="277007471#2" departLane="best" type="veh_passenger"/>
    <trip id="veh13" depart="259.87" from="150768635#1" to="276781728#3" departLane="best" type="veh_passenger"/>
    <trip id="veh14" depart="279.86" from="-276781728#3" to="-150768635#0" departLane="best" type="veh_passenger" departSpeed="max"/>
    <trip id="veh15" depart="299.85" from="-276781728#3" to="63036080#8" departLane="best" type="veh_passenger" departSpeed="max"/>
    <trip id="veh16" depart="319.84" from="-84620431#0" to="-276781739" departLane="best" type="veh_passenger"/>
    <trip id="veh17" depart="339.83" from="84620431#3" to="150768635#3" departLane="best" type="veh_passenger"/>
    <trip id="veh18" depart="359.82" from="-150768635#3" to="-150768635#2" departLane="best" type="veh_passenger" departSpeed="max"/>
    <trip id="veh19" depart="379.81" from="-150768635#3" to="-84620431#1" departLane="best" type="veh_passenger" departSpeed="max"/>
    <trip id="veh20" depart="399.80" from="84620431#3" to="150768635#3" departLane="best" type="veh_passenger"/>
    <trip id="veh21" depart="419.78" from="24556602#1" to="150768635#3" departLane="best" type="veh_passenger"/>
    <trip id="veh22" depart="439.77" from="-197841301#1" to="149185404#0" departLane="best" type="veh_passenger"/>
    <trip id="veh23" depart="459.76" from="149185404#0" to="-24556602#2" departLane="best" type="veh_passenger"/>
    <trip id="veh24" depart="479.75" from="197841301#0" to="-197841301#5" departLane="best" type="veh_passenger" departSpeed="max"/>
    <trip id="veh25" depart="499.74" from="-39946669#3" to="-166901394#0" departLane="best" type="veh_passenger" departSpeed="max"/>
    <trip id="veh26" depart="519.73" from="-150768635#3" to="277007471#2" departLane="best" type="veh_passenger" departSpeed="max"/>
    <trip id="veh27" depart="539.72" from="-276781728#2" to="-63036080#3" departLane="best" type="veh_passenger"/>
    <trip id="veh28" depart="559.71" from="84620431#3" to="276781728#2" departLane="best" type="veh_passenger"/>
    <trip id="veh29" depart="579.70" from="-63036080#1" to="197841301#3" departLane="best" type="veh_passenger"/>
    <trip id="veh30" depart="599.69" from="-150768635#3" to="24556602#2" departLane="best" type="veh_passenger" departSpeed="max"/>
    <trip id="veh31" depart="619.68" from="-276781728#3" to="63036080#4" departLane="best" type="veh_passenger" departSpeed="max"/>
    <trip id="veh32" depart="639.67" from="-276781728#3" to="-197841301#2" departLane="best" type="veh_passenger" departSpeed="max"/>
    <trip id="veh33" depart="659.66" from="63036080#7" to="197841301#1" departLane="best" type="veh_passenger"/>
    <trip id="veh34" depart="679.65" from="276781728#0" to="276781728#3" departLane="best" type="veh_passenger" departSpeed="max"/>
    <trip id="veh35" depart="699.64" from="84620431#2" to="-197841301#0" departLane="best" type="veh_passenger"/>
    <trip id="veh36" depart="719.63" from="-276781739" to="63036080#6" departLane="best" type="veh_passenger"/>
    <trip id="veh37" depart="739.62" from="1355267532#0" to="1355267533" departLane="best" type="veh_passenger" departSpeed="max"/>
    <trip id="veh38" depart="759.61" from="-24556602#0" to="-63036080#0" departLane="best" type="veh_passenger"/>
    <trip id="veh39" depart="779.60" from="84620431#0" to="197841301#2" departLane="best" type="veh_passenger"/>
    <trip id="veh40" depart="799.59" from="-150768635#3" to="197841301#3" departLane="best" type="veh_passenger" departSpeed="max"/>
    <trip id="veh41" depart="819.58" from="149185404#0" to="50833122#1" departLane="best" type="veh_passenger"/>
    <trip id="veh42" depart="839.57" from="-150768635#3" to="-24556602#2" departLane="best" type="veh_passenger" departSpeed="max"/>
    <trip id="veh43" depart="859.56" from="197841301#0" to="276781728#3" departLane="best" type="veh_passenger" departSpeed="max"/>
    <trip id="veh44" depart="879.55" from="-276781728#3" to="-197841301#1" departLane="best" type="veh_passenger" departSpeed="max"/>
    <trip id="veh45" depart="899.54" from="197841301#0" to="24556602#0" departLane="best" type="veh_passenger" departSpeed="max"/>
    <trip id="veh46" depart="919.53" from="-84620431#2" to="197841301#2" departLane="best" type="veh_passenger"/>
    <trip id="veh47" depart="939.52" from="-276781728#3" to="277007471#0" departLane="best" type="veh_passenger" departSpeed="max"/>
    <trip id="veh48" depart="959.51" from="-276781728#3" to="-84620431#2" departLane="best" type="veh_passenger" departSpeed="max"/>
    <trip id="veh49" depart="979.50" from="24556602#0" to="-63036080#0" departLane="best" type="veh_passenger"/>
    <trip id="veh50" depart="999.49" from="-150768635#3" to="149185413#1" departLane="best" type="veh_passenger" departSpeed="max"/>
    <trip id="veh51" depart="1019.48" from="-63036080#6" to="-197841301#5" departLane="best" type="veh_passenger"/>
    <trip id="veh52" depart="1039.47" from="50833122#4" to="276781739" departLane="best" type="veh_passenger"/>
    <trip id="veh53" depart="1059.46" from="197841301#0" to="84620431#2" departLane="best" type="veh_passenger" departSpeed="max"/>
    <trip id="veh54" depart="1079.45" from="197841301#4" to="-139377230" departLane="best" type="veh_passenger"/>
    <trip id="veh55" depart="1099.44" from="50833122#1" to="-63036080#0" departLane="best" type="veh_passenger"/>
    <trip id="veh56" depart="1119.43" from="197841301#5" to="63036080#8" departLane="best" type="veh_passenger"/>
    <trip id="veh57" depart="1139.42" from="-150768635#3" to="63036080#0" departLane="best" type="veh_passenger" departSpeed="max"/>
    <trip id="veh58" depart="1159.41" from="63036080#3" to="150768635#3" departLane="best" type="veh_passenger"/>
    <trip id="veh59" depart="1179.40" from="-197841301#5" to="-197841301#2" departLane="best" type="veh_passenger"/>
    <trip id="veh60" depart="1199.39" from="-276781739" to="-197841301#0" departLane="best" type="veh_passenger"/>
    <trip id="veh61" depart="1219.38" from="-24556602#0" to="63036080#7" departLane="best" type="veh_passenger"/>
    <trip id="veh62" depart="1239.37" from="50833122#0" to="63036080#0" departLane="best" type="veh_passenger"/>
    <trip id="veh63" depart="1259.35" from="39946669#1" to="-39946669#0" departLane="best" type="veh_passenger"/>
    <trip id="veh64" depart="1279.34" from="84620431#1" to="150768635#3" departLane="best" type="veh_passenger"/>
    <trip id="veh65" depart="1299.33" from="63036080#7" to="-197841301#1" departLane="best" type="veh_passenger"/>
    <trip id="veh66" depart="1319.32" from="197841301#0" to="150768635#3" departLane="best" type="veh_passenger" departSpeed="max"/>
    <trip id="veh67" depart="1339.31" from="-63036080#8" to="197841301#2" departLane="best" type="veh_passenger"/>
    <trip id="veh68" depart="1359.30" from="276781728#1" to="276781728#3" departLane="best" type="veh_passenger"/>
    <trip id="veh69" depart="1379.29" from="197841301#5" to="-63036080#5" departLane="best" type="veh_passenger"/>
    <trip id="veh70" depart="1399.28" from="63036080#7" to="276781728#3" departLane="best" type="veh_passenger"/>
    <trip id="veh71" depart="1419.27" from="197841301#4" to="149185413#2" departLane="best" type="veh_passenger"/>
    <trip id="veh72" depart="1439.26" from="197841301#1" to="-63036080#5" departLane="best" type="veh_passenger"/>
    <trip id="veh73" depart="1459.25" from="50833122#1" to="277007471#2" departLane="best" type="veh_passenger"/>
    <trip id="veh74" depart="1479.24" from="-276781728#1" to="276781728#3" departLane="best" type="veh_passenger"/>
    <trip id="veh75" depart="1499.23" from="197841301#4" to="-139377230" departLane="best" type="veh_passenger"/>
    <trip id="veh76" depart="1519.22" from="149185413#1" to="-150768635#2" departLane="best" type="veh_passenger"/>
    <trip id="veh77" depart="1539.21" from="-276781739" to="50833122#0" departLane="best" type="veh_passenger"/>
    <trip id="veh78" depart="1559.20" from="197841301#0" to="63036080#9" departLane="best" type="veh_passenger" departSpeed="max"/>
    <trip id="veh79" depart="1579.19" from="276781728#0" to="150768635#3" departLane="best" type="veh_passenger" departSpeed="max"/>
    <trip id="veh80" depart="1599.18" from="50833122#4" to="150768635#3" departLane="best" type="veh_passenger"/>
    <trip id="veh81" depart="1619.17" from="63036080#1" to="277007471#2" departLane="best" type="veh_passenger"/>
    <trip id="veh82" depart="1639.16" from="-276781739" to="276781728#1" departLane="best" type="veh_passenger"/>
    <trip id="veh83" depart="1659.15" from="-84620431#1" to="150768635#3" departLane="best" type="veh_passenger"/>
    <trip id="veh84" depart="1679.14" from="-63036080#7" to="-139377230" departLane="best" type="veh_passenger"/>
    <trip id="veh85" depart="1699.13" from="-63036080#4" to="277007471#2" departLane="best" type="veh_passenger"/>
    <trip id="veh86" depart="1719.12" from="-84620431#2" to="277007471#2" departLane="best" type="veh_passenger"/>
    <trip id="veh87" depart="1739.11" from="-63036080#1" to="276781728#3" departLane="best" type="veh_passenger"/>
    <trip id="veh88" depart="1759.10" from="197841301#0" to="-150768635#0" departLane="best" type="veh_passenger" departSpeed="max"/>
    <trip id="veh89" depart="1779.09" from="-197841301#4" to="149185413#2" departLane="best" type="veh_passenger"/>
    <trip id="veh90" depart="1799.08" from="-150768635#2" to="-84620431#0" departLane="best" type="veh_passenger"/>
    <trip id="veh91" depart="1819.07" from="-276781728#3" to="-63036080#4" departLane="best" type="veh_passenger" departSpeed="max"/>
    <trip id="veh92" depart="1839.06" from="276781739" to="-84620431#0" departLane="best" type="veh_passenger"/>
    <trip id="veh93" depart="1859.05" from="-276781739" to="-197841301#0" departLane="best" type="veh_passenger"/>
    <trip id="veh94" depart="1879.04" from="-197841301#2" to="276781728#3" departLane="best" type="veh_passenger"/>
    <trip id="veh95" depart="1899.03" from="150768635#2" to="-276781739" departLane="best" type="veh_passenger"/>
    <trip id="veh96" depart="1919.02" from="276781728#0" to="277007471#2" departLane="best" type="veh_passenger" departSpeed="max"/>
    <trip id="veh97" depart="1939.01" from="276781728#2" to="-197841301#0" departLane="best" type="veh_passenger"/>
    <trip id="veh98" depart="1959.00" from="276781728#0" to="-197841301#0" departLane="best" type="veh_passenger" departSpeed="max"/>
    <trip id="veh99" depart="1978.99" from="-166901394#1" to="39946669#0" departLane="best" type="veh_passenger"/>
    <trip id="veh100" depart="1998.98" from="-197841301#2" to="84620431#2" departLane="best" type="veh_passenger"/>
    <trip id="veh101" depart="2018.97" from="50833122#4" to="-197841301#0" departLane="best" type="veh_passenger"/>
    <trip id="veh102" depart="2038.96" from="-150768635#3" to="277007471#1" departLane="best" type="veh_passenger" departSpeed="max"/>
    <trip id="veh103" depart="2058.95" from="-276781739" to="-197841301#1" departLane="best" type="veh_passenger"/>
    <trip id="veh104" depart="2078.94" from="-276781728#1" to="-197841301#1" departLane="best" type="veh_passenger"/>
    <trip id="veh105" depart="2098.92" from="-276781728#0" to="-276781739" departLane="best" type="veh_passenger"/>
    <trip id="veh106" depart="2118.91" from="84620431#1" to="150768635#3" departLane="best" type="veh_passenger"/>
    <trip id="veh107" depart="2138.90" from="276781728#0" to="-197841301#2" departLane="best" type="veh_passenger" departSpeed="max"/>
    <trip id="veh108" depart="2158.89" from="-276781728#0" to="-150768635#2" departLane="best" type="veh_passenger"/>
    <trip id="veh109" depart="2178.88" from="-150768635#3" to="24556602#2" departLane="best" type="veh_passenger" departSpeed="max"/>
    <trip id="veh110" depart="2198.87" from="-150768635#3" to="-197841301#4" departLane="best" type="veh_passenger" departSpeed="max"/>
    <trip id="veh111" depart="2218.86" from="150768635#2" to="-63036080#1" departLane="best" type="veh_passenger"/>
    <trip id="veh112" depart="2238.85" from="84620431#3" to="-197841301#1" departLane="best" type="veh_passenger"/>
    <trip id="veh113" depart="2258.84" from="39946669#1" to="-39946669#0" departLane="best" type="veh_passenger"/>
    <trip id="veh114" depart="2278.83" from="197841301#0" to="197841301#5" departLane="best" type="veh_passenger" departSpeed="max"/>
    <trip id="veh115" depart="2298.82" from="-276781728#3" to="-276781728#2" departLane="best" type="veh_passenger" departSpeed="max"/>
    <trip id="veh116" depart="2318.81" from="-24556602#2" to="-197841301#0" departLane="best" type="veh_passenger"/>
    <trip id="veh117" depart="2338.80" from="276781728#0" to="149185413#1" departLane="best" type="veh_passenger" departSpeed="max"/>
    <trip id="veh118" depart="2358.79" from="24556602#2" to="63036080#6" departLane="best" type="veh_passenger"/>
    <trip id="veh119" depart="2378.78" from="197841301#5" to="63036080#7" departLane="best" type="veh_passenger"/>
    <trip id="veh120" depart="2398.77" from="197841301#3" to="63036080#4" departLane="best" type="veh_passenger"/>
    <trip id="veh121" depart="2418.76" from="50833122#2" to="-197841301#0" departLane="best" type="veh_passenger"/>
    <trip id="veh122" depart="2438.75" from="276781728#2" to="197841301#1" departLane="best" type="veh_passenger"/>
    <trip id="veh123" depart="2458.74" from="24556602#2" to="276781739" departLane="best" type="veh_passenger"/>
    <trip id="veh124" depart="2478.73" from="63036080#8" to="150768635#2" departLane="best" type="veh_passenger"/>
    <trip id="veh125" depart="2498.72" from="139377230" to="-197841301#0" departLane="best" type="veh_passenger"/>
    <trip id="veh126" depart="2518.71" from="-150768635#1" to="139377230" departLane="best" type="veh_passenger"/>
    <trip id="veh127" depart="2538.70" from="-150768635#3" to="682628452" departLane="best" type="veh_passenger" departSpeed="max"/>
    <trip id="veh128" depart="2558.69" from="50833122#4" to="197841301#1" departLane="best" type="veh_passenger"/>
    <trip id="veh129" depart="2578.68" from="-150768635#1" to="277007471#2" departLane="best" type="veh_passenger"/>
    <trip id="veh130" depart="2598.67" from="63036080#5" to="-24556602#2" departLane="best" type="veh_passenger"/>
    <trip id="veh131" depart="2618.66" from="197841301#0" to="24556602#2" departLane="best" type="veh_passenger" departSpeed="max"/>
    <trip id="veh132" depart="2638.65" from="139377230" to="-197841301#0" departLane="best" type="veh_passenger"/>
    <trip id="veh133" depart="2658.64" from="-63036080#0" to="276781728#3" departLane="best" type="veh_passenger"/>
    <trip id="veh134" depart="2678.63" from="-84620431#0" to="150768635#3" departLane="best" type="veh_passenger"/>
    <trip id="veh135" depart="2698.62" from="84620431#2" to="276781728#3" departLane="best" type="veh_passenger"/>
    <trip id="veh136" depart="2718.61" from="276781739" to="24556602#1" departLane="best" type="veh_passenger"/>
    <trip id="veh137" depart="2738.60" from="276781739" to="-276781728#2" departLane="best" type="veh_passenger"/>
    <trip id="veh138" depart="2758.59" from="-197841301#2" to="84620431#0" departLane="best" type="veh_passenger"/>
    <trip id="veh139" depart="2778.58" from="150768635#1" to="-197841301#0" departLane="best" type="veh_passenger"/>
    <trip id="veh140" depart="2798.57" from="50833122#4" to="150768635#2" departLane="best" type="veh_passenger"/>
    <trip id="veh141" depart="2818.56" from="276781728#0" to="150768635#3" departLane="best" type="veh_passenger" departSpeed="max"/>
    <trip id="veh142" depart="2838.55" from="63036080#5" to="150768635#3" departLane="best" type="veh_passenger"/>
    <trip id="veh143" depart="2858.54" from="197841301#0" to="84620431#3" departLane="best" type="veh_passenger" departSpeed="max"/>
    <trip id="veh144" depart="2878.53" from="150768635#1" to="150768635#3" departLane="best" type="veh_passenger"/>
    <trip id="veh145" depart="2898.52" from="-276781728#1" to="276781728#3" departLane="best" type="veh_passenger"/>
    <trip id="veh146" depart="2918.51" from="166901394#0" to="-39946669#1" departLane="best" type="veh_passenger"/>
    <trip id="veh147" depart="2938.49" from="276781728#1" to="276781739" departLane="best" type="veh_passenger"/>
    <trip id="veh148" depart="2958.48" from="84620431#1" to="150768635#1" departLane="best" type="veh_passenger"/>
    <trip id="veh149" depart="2978.47" from="-150768635#1" to="150768635#2" departLane="best" type="veh_passenger"/>
    <trip id="veh150" depart="2998.46" from="197841301#0" to="50833122#4" departLane="best" type="veh_passenger" departSpeed="max"/>
    <trip id="veh151" depart="3018.45" from="-63036080#1" to="276781728#3" departLane="best" type="veh_passenger"/>
    <trip id="veh152" depart="3038.44" from="276781728#0" to="277007471#2" departLane="best" type="veh_passenger" departSpeed="max"/>
    <trip id="veh153" depart="3058.43" from="-150768635#3" to="24556602#2" departLane="best" type="veh_passenger" departSpeed="max"/>
    <trip id="veh154" depart="3078.42" from="24556602#2" to="63036080#4" departLane="best" type="veh_passenger"/>
    <trip id="veh155" depart="3098.41" from="-197841301#5" to="150768635#3" departLane="best" type="veh_passenger"/>
    <trip id="veh156" depart="3118.40" from="-24556602#2" to="-197841301#0" departLane="best" type="veh_passenger"/>
    <trip id="veh157" depart="3138.39" from="-276781728#3" to="63036080#5" departLane="best" type="veh_passenger" departSpeed="max"/>
    <trip id="veh158" depart="3158.38" from="-197841301#4" to="149185413#2" departLane="best" type="veh_passenger"/>
    <trip id="veh159" depart="3178.37" from="-150768610#0" to="39946669#3" departLane="best" type="veh_passenger"/>
    <trip id="veh160" depart="3198.36" from="63036080#3" to="276781728#3" departLane="best" type="veh_passenger"/>
    <trip id="veh161" depart="3218.35" from="-24556602#0" to="149185404#0" departLane="best" type="veh_passenger"/>
    <trip id="veh162" depart="3238.34" from="-63036080#3" to="197841301#3" departLane="best" type="veh_passenger"/>
    <trip id="veh163" depart="3258.33" from="-276781739" to="50833122#0" departLane="best" type="veh_passenger"/>
    <trip id="veh164" depart="3278.32" from="-276781728#2" to="-84620431#1" departLane="best" type="veh_passenger"/>
    <trip id="veh165" depart="3298.31" from="84620431#1" to="276781728#3" departLane="best" type="veh_passenger"/>
    <trip id="veh166" depart="3318.30" from="-39946669#2" to="166901394#1" departLane="best" type="veh_passenger"/>
    <trip id="veh167" depart="3338.29" from="24556602#1" to="277007471#2" departLane="best" type="veh_passenger"/>
    <trip id="veh168" depart="3358.28" from="-150768635#2" to="197841301#5" departLane="best" type="veh_passenger"/>
    <trip id="veh169" depart="3378.27" from="139377230" to="63036080#4" departLane="best" type="veh_passenger"/>
    <trip id="veh170" depart="3398.26" from="197841301#0" to="-63036080#7" departLane="best" type="veh_passenger" departSpeed="max"/>
    <trip id="veh171" depart="3418.25" from="197841301#2" to="24556602#1" departLane="best" type="veh_passenger"/>
    <trip id="veh172" depart="3438.24" from="197841301#1" to="63036080#4" departLane="best" type="veh_passenger"/>
    <trip id="veh173" depart="3458.23" from="197841301#3" to="-63036080#1" departLane="best" type="veh_passenger"/>
    <trip id="veh174" depart="3478.22" from="276781728#0" to="-197841301#0" departLane="best" type="veh_passenger" departSpeed="max"/>
    <trip id="veh175" depart="3498.21" from="-24556602#2" to="-197841301#2" departLane="best" type="veh_passenger"/>
    <trip id="veh176" depart="3518.20" from="50833122#0" to="277007471#2" departLane="best" type="veh_passenger"/>
    <trip id="veh177" depart="3538.19" from="-63036080#1" to="-197841301#1" departLane="best" type="veh_passenger"/>
    <trip id="veh178" depart="3558.18" from="682628452" to="-197841301#3" departLane="best" type="veh_passenger"/>
    <trip id="veh179" depart="3578.17" from="50833122#2" to="63036080#8" departLane="best" type="veh_passenger"/>
    <trip id="veh180" depart="3598.16" from="-166901394#1" to="-39946669#1" departLane="best" type="veh_passenger"/>
</routes>
