<?xml version="1.0" encoding="UTF-8"?>

<!-- generated on 2025-05-20 02:44:15.946303 by osmWebWizard.py v1_23_1+0000-676720d13f6
<configuration>
    <net-file value="C:\Users\trose\Sumo\2025-05-20-02-43-49\osm.net.xml.gz"/>
    <additional-files value="C:\Users\trose\Sumo\2025-05-20-02-43-49\osm_stops.add.xml,C:\Users\trose\Sumo\2025-05-20-02-43-49\osm_pt.rou.xml"/>
    <output-trip-file value="C:\Users\trose\Sumo\2025-05-20-02-43-49\osm.pedestrian.trips.xml"/>
    <route-file value="C:\Users\trose\Sumo\2025-05-20-02-43-49\osm.pedestrian.rou.xml"/>
    <persontrips value="True"/>
    <persontrip.walk-opposite-factor value="0.8"/>
    <prefix value="ped"/>
    <trip-attributes value="modes=&quot;public&quot;"/>
    <vehicle-class value="pedestrian"/>
    <fringe-factor value="1"/>
    <insertion-density value="20.0"/>
    <duarouter-weights.tls-penalty value="20"/>
</configuration>
-->

<routes xmlns:xsi="http://www.w3.org/2001/XMLSchema-instance" xsi:noNamespaceSchemaLocation="http://sumo.dlr.de/xsd/routes_file.xsd">
    <vType id="ped_pedestrian" vClass="pedestrian"/>
    <person id="ped0" depart="0.00" type="ped_pedestrian">
        <personTrip from="272439104#1" to="-1355283081" modes="public"/>
    </person>
    <person id="ped1" depart="7.54" type="ped_pedestrian">
        <personTrip from="-826498442#0" to="-277007522#1" modes="public"/>
    </person>
    <person id="ped2" depart="15.09" type="ped_pedestrian">
        <personTrip from="276995994#0" to="276995971#7" modes="public"/>
    </person>
    <person id="ped3" depart="22.63" type="ped_pedestrian">
        <personTrip from="50825972" to="-139377249#0" modes="public"/>
    </person>
    <person id="ped4" depart="30.18" type="ped_pedestrian">
        <personTrip from="1355283082#2" to="-1355310066#1" modes="public"/>
    </person>
    <person id="ped5" depart="37.72" type="ped_pedestrian">
        <personTrip from="-277007515#2" to="1360226745" modes="public"/>
    </person>
    <person id="ped6" depart="45.27" type="ped_pedestrian">
        <personTrip from="-1355294513" to="-276995990#3" modes="public"/>
    </person>
    <person id="ped7" depart="52.81" type="ped_pedestrian">
        <personTrip from="276995965" to="139377250#1" modes="public"/>
    </person>
    <person id="ped8" depart="60.36" type="ped_pedestrian">
        <personTrip from="-277007515#2" to="149185411" modes="public"/>
    </person>
    <person id="ped9" depart="67.90" type="ped_pedestrian">
        <personTrip from="277060229" to="-1193171351#1" modes="public"/>
    </person>
    <person id="ped10" depart="75.44" type="ped_pedestrian">
        <personTrip from="277060225#0" to="276995976" modes="public"/>
    </person>
    <person id="ped11" depart="82.99" type="ped_pedestrian">
        <personTrip from="1355267459#3" to="-199771255" modes="public"/>
    </person>
    <person id="ped12" depart="90.53" type="ped_pedestrian">
        <personTrip from="619566332" to="1355267459#2" modes="public"/>
    </person>
    <person id="ped13" depart="98.08" type="ped_pedestrian">
        <personTrip from="-139377250#0" to="-139377250#1" modes="public"/>
    </person>
    <person id="ped14" depart="105.62" type="ped_pedestrian">
        <personTrip from="277060259#1" to="197841312#0" modes="public"/>
    </person>
    <person id="ped15" depart="113.17" type="ped_pedestrian">
        <personTrip from="277060225#1" to="276995992#1" modes="public"/>
    </person>
    <person id="ped16" depart="120.71" type="ped_pedestrian">
        <personTrip from="139377249#0" to="826498441#1" modes="public"/>
    </person>
    <person id="ped17" depart="128.26" type="ped_pedestrian">
        <personTrip from="1355267541" to="139377251#1" modes="public"/>
    </person>
    <person id="ped18" depart="135.80" type="ped_pedestrian">
        <personTrip from="277060249" to="197841312#5" modes="public"/>
    </person>
    <person id="ped19" depart="143.34" type="ped_pedestrian">
        <personTrip from="292046245#0" to="139377258#0" modes="public"/>
    </person>
    <person id="ped20" depart="150.89" type="ped_pedestrian">
        <personTrip from="276995981#0" to="-1355619251#0" modes="public"/>
    </person>
    <person id="ped21" depart="158.43" type="ped_pedestrian">
        <personTrip from="-310467448#1" to="116513913" modes="public"/>
    </person>
    <person id="ped22" depart="165.98" type="ped_pedestrian">
        <personTrip from="-139377245#0" to="-50825961" modes="public"/>
    </person>
    <person id="ped23" depart="173.52" type="ped_pedestrian">
        <personTrip from="-139377251#1" to="-834627919#0" modes="public"/>
    </person>
    <person id="ped24" depart="181.07" type="ped_pedestrian">
        <personTrip from="26734557#2" to="1355267537#1" modes="public"/>
    </person>
    <person id="ped25" depart="188.61" type="ped_pedestrian">
        <personTrip from="1355267537#2" to="-277007483#1" modes="public"/>
    </person>
    <person id="ped26" depart="196.16" type="ped_pedestrian">
        <personTrip from="-77031328" to="61270130#1" modes="public"/>
    </person>
    <person id="ped27" depart="203.70" type="ped_pedestrian">
        <personTrip from="276995965" to="197841312#2" modes="public"/>
    </person>
    <person id="ped28" depart="211.24" type="ped_pedestrian">
        <personTrip from="-276995972#1" to="276995991#1" modes="public"/>
    </person>
    <person id="ped29" depart="218.79" type="ped_pedestrian">
        <personTrip from="-26734557#1" to="1355283069#0" modes="public"/>
    </person>
    <person id="ped30" depart="226.33" type="ped_pedestrian">
        <personTrip from="833168415" to="272439104#1" modes="public"/>
    </person>
    <person id="ped31" depart="233.88" type="ped_pedestrian">
        <personTrip from="139377251#4" to="276995972#1" modes="public"/>
    </person>
    <person id="ped32" depart="241.42" type="ped_pedestrian">
        <personTrip from="277060253#2" to="277007500#3" modes="public"/>
    </person>
    <person id="ped33" depart="248.97" type="ped_pedestrian">
        <personTrip from="-310467448#1" to="-1355310066#1" modes="public"/>
    </person>
    <person id="ped34" depart="256.51" type="ped_pedestrian">
        <personTrip from="1355267450" to="-826498441#0" modes="public"/>
    </person>
    <person id="ped35" depart="264.05" type="ped_pedestrian">
        <personTrip from="-277007483#1" to="61270130#3" modes="public"/>
    </person>
    <person id="ped36" depart="271.60" type="ped_pedestrian">
        <personTrip from="385795487" to="1355267449" modes="public"/>
    </person>
    <person id="ped37" depart="279.14" type="ped_pedestrian">
        <personTrip from="276995968#1" to="1355283072#1" modes="public"/>
    </person>
    <person id="ped38" depart="286.69" type="ped_pedestrian">
        <personTrip from="50833125#2" to="1355310066#2" modes="public"/>
    </person>
    <person id="ped39" depart="294.23" type="ped_pedestrian">
        <personTrip from="-77031328" to="-50833125#1" modes="public"/>
    </person>
    <person id="ped40" depart="301.78" type="ped_pedestrian">
        <personTrip from="139377251#5" to="-61270130#3" modes="public"/>
    </person>
    <person id="ped41" depart="309.32" type="ped_pedestrian">
        <personTrip from="139377258#3" to="50825974" modes="public"/>
    </person>
    <person id="ped42" depart="316.87" type="ped_pedestrian">
        <personTrip from="1355283073" to="-277007515#2" modes="public"/>
    </person>
    <person id="ped43" depart="324.41" type="ped_pedestrian">
        <personTrip from="988641862" to="139377237#0" modes="public"/>
    </person>
    <person id="ped44" depart="331.95" type="ped_pedestrian">
        <personTrip from="-139377249#1" to="-1355619251#1" modes="public"/>
    </person>
    <person id="ped45" depart="339.50" type="ped_pedestrian">
        <personTrip from="-139377251#5" to="199771256" modes="public"/>
    </person>
    <person id="ped46" depart="347.04" type="ped_pedestrian">
        <personTrip from="277007522#1" to="1355283082#2" modes="public"/>
    </person>
    <person id="ped47" depart="354.59" type="ped_pedestrian">
        <personTrip from="-139377237#1" to="1355283069#0" modes="public"/>
    </person>
    <person id="ped48" depart="362.13" type="ped_pedestrian">
        <personTrip from="834627919#1" to="139377242#1" modes="public"/>
    </person>
    <person id="ped49" depart="369.68" type="ped_pedestrian">
        <personTrip from="826498441#1" to="292046245#0" modes="public"/>
    </person>
    <person id="ped50" depart="377.22" type="ped_pedestrian">
        <personTrip from="-1355267468" to="276995990#4" modes="public"/>
    </person>
    <person id="ped51" depart="384.77" type="ped_pedestrian">
        <personTrip from="276995972#0" to="139377249#0" modes="public"/>
    </person>
    <person id="ped52" depart="392.31" type="ped_pedestrian">
        <personTrip from="-77031328" to="272439104#1" modes="public"/>
    </person>
    <person id="ped53" depart="399.85" type="ped_pedestrian">
        <personTrip from="-139377251#5" to="1355283084" modes="public"/>
    </person>
    <person id="ped54" depart="407.40" type="ped_pedestrian">
        <personTrip from="1355294513" to="619566330" modes="public"/>
    </person>
    <person id="ped55" depart="414.94" type="ped_pedestrian">
        <personTrip from="385795487" to="-61270130#3" modes="public"/>
    </person>
    <person id="ped56" depart="422.49" type="ped_pedestrian">
        <personTrip from="1360226744" to="-276995973#0" modes="public"/>
    </person>
    <person id="ped57" depart="430.03" type="ped_pedestrian">
        <personTrip from="50833125#2" to="35214249" modes="public"/>
    </person>
    <person id="ped58" depart="437.58" type="ped_pedestrian">
        <personTrip from="128042010" to="272439104#1" modes="public"/>
    </person>
    <person id="ped59" depart="445.12" type="ped_pedestrian">
        <personTrip from="197841312#2" to="-197841311" modes="public"/>
    </person>
    <person id="ped60" depart="452.67" type="ped_pedestrian">
        <personTrip from="277007472#2" to="139377249#1" modes="public"/>
    </person>
    <person id="ped61" depart="460.21" type="ped_pedestrian">
        <personTrip from="277007514#0" to="139377245#0" modes="public"/>
    </person>
    <person id="ped62" depart="467.75" type="ped_pedestrian">
        <personTrip from="-116513913" to="1355267455#0" modes="public"/>
    </person>
    <person id="ped63" depart="475.30" type="ped_pedestrian">
        <personTrip from="-1355283072#1" to="546375643#0" modes="public"/>
    </person>
    <person id="ped64" depart="482.84" type="ped_pedestrian">
        <personTrip from="50825960" to="277060251#0" modes="public"/>
    </person>
    <person id="ped65" depart="490.39" type="ped_pedestrian">
        <personTrip from="1355267447#1" to="-1360244738" modes="public"/>
    </person>
    <person id="ped66" depart="497.93" type="ped_pedestrian">
        <personTrip from="50825960" to="619566325" modes="public"/>
    </person>
    <person id="ped67" depart="505.48" type="ped_pedestrian">
        <personTrip from="-139377249#0" to="1355619250#1" modes="public"/>
    </person>
    <person id="ped68" depart="513.02" type="ped_pedestrian">
        <personTrip from="-139377238#0" to="277007472#1" modes="public"/>
    </person>
    <person id="ped69" depart="520.57" type="ped_pedestrian">
        <personTrip from="277007483#1" to="-139377258#0" modes="public"/>
    </person>
    <person id="ped70" depart="528.11" type="ped_pedestrian">
        <personTrip from="1355512575#1" to="139377251#0" modes="public"/>
    </person>
    <person id="ped71" depart="535.65" type="ped_pedestrian">
        <personTrip from="-77031328" to="375334741" modes="public"/>
    </person>
    <person id="ped72" depart="543.20" type="ped_pedestrian">
        <personTrip from="1355283082#2" to="-277007515#0" modes="public"/>
    </person>
    <person id="ped73" depart="550.74" type="ped_pedestrian">
        <personTrip from="139377249#1" to="276995992#1" modes="public"/>
    </person>
    <person id="ped74" depart="558.29" type="ped_pedestrian">
        <personTrip from="-276995990#4" to="1355267448" modes="public"/>
    </person>
    <person id="ped75" depart="565.83" type="ped_pedestrian">
        <personTrip from="834627919#1" to="276995965" modes="public"/>
    </person>
    <person id="ped76" depart="573.38" type="ped_pedestrian">
        <personTrip from="1355283086" to="139377237#2" modes="public"/>
    </person>
    <person id="ped77" depart="580.92" type="ped_pedestrian">
        <personTrip from="-139377256#3" to="-310467448#0" modes="public"/>
    </person>
    <person id="ped78" depart="588.47" type="ped_pedestrian">
        <personTrip from="1355267459#2" to="149185411" modes="public"/>
    </person>
    <person id="ped79" depart="596.01" type="ped_pedestrian">
        <personTrip from="-375334741" to="-277007515#2" modes="public"/>
    </person>
    <person id="ped80" depart="603.55" type="ped_pedestrian">
        <personTrip from="-139377238#1" to="26734557#0" modes="public"/>
    </person>
    <person id="ped81" depart="611.10" type="ped_pedestrian">
        <personTrip from="-310467448#1" to="50825976" modes="public"/>
    </person>
    <person id="ped82" depart="618.64" type="ped_pedestrian">
        <personTrip from="292046245#0" to="-139377238#1" modes="public"/>
    </person>
    <person id="ped83" depart="626.19" type="ped_pedestrian">
        <personTrip from="-50825962#0" to="276995971#4" modes="public"/>
    </person>
    <person id="ped84" depart="633.73" type="ped_pedestrian">
        <personTrip from="-277007515#0" to="-139377258#1" modes="public"/>
    </person>
    <person id="ped85" depart="641.28" type="ped_pedestrian">
        <personTrip from="61270130#1" to="139377256#3" modes="public"/>
    </person>
    <person id="ped86" depart="648.82" type="ped_pedestrian">
        <personTrip from="1355512575#0" to="277007515#0" modes="public"/>
    </person>
    <person id="ped87" depart="656.36" type="ped_pedestrian">
        <personTrip from="277060225#1" to="-276995982#1" modes="public"/>
    </person>
    <person id="ped88" depart="663.91" type="ped_pedestrian">
        <personTrip from="-139377250#1" to="1355283083#1" modes="public"/>
    </person>
    <person id="ped89" depart="671.45" type="ped_pedestrian">
        <personTrip from="1355283082#3" to="1355310068#2" modes="public"/>
    </person>
    <person id="ped90" depart="679.00" type="ped_pedestrian">
        <personTrip from="276995991#1" to="276995971#5" modes="public"/>
    </person>
    <person id="ped91" depart="686.54" type="ped_pedestrian">
        <personTrip from="833168413" to="-139377251#0" modes="public"/>
    </person>
    <person id="ped92" depart="694.09" type="ped_pedestrian">
        <personTrip from="1355283074#0" to="1355267459#3" modes="public"/>
    </person>
    <person id="ped93" depart="701.63" type="ped_pedestrian">
        <personTrip from="292046245#0" to="-50833125#2" modes="public"/>
    </person>
    <person id="ped94" depart="709.18" type="ped_pedestrian">
        <personTrip from="-276995982#1" to="1355283090#1" modes="public"/>
    </person>
    <person id="ped95" depart="716.72" type="ped_pedestrian">
        <personTrip from="1355283082#2" to="-834627919#0" modes="public"/>
    </person>
    <person id="ped96" depart="724.26" type="ped_pedestrian">
        <personTrip from="-50833125#2" to="546373399#1" modes="public"/>
    </person>
    <person id="ped97" depart="731.81" type="ped_pedestrian">
        <personTrip from="1355283088" to="292046245#0" modes="public"/>
    </person>
    <person id="ped98" depart="739.35" type="ped_pedestrian">
        <personTrip from="139377251#1" to="-1359338042#0" modes="public"/>
    </person>
    <person id="ped99" depart="746.90" type="ped_pedestrian">
        <personTrip from="988641862" to="277060253#0" modes="public"/>
    </person>
    <person id="ped100" depart="754.44" type="ped_pedestrian">
        <personTrip from="826498441#0" to="546373399#2" modes="public"/>
    </person>
    <person id="ped101" depart="761.99" type="ped_pedestrian">
        <personTrip from="277060259#1" to="-26734557#2" modes="public"/>
    </person>
    <person id="ped102" depart="769.53" type="ped_pedestrian">
        <personTrip from="1355619250#1" to="-277007515#0" modes="public"/>
    </person>
    <person id="ped103" depart="777.08" type="ped_pedestrian">
        <personTrip from="1355283074#0" to="-1360244738" modes="public"/>
    </person>
    <person id="ped104" depart="784.62" type="ped_pedestrian">
        <personTrip from="1355267541" to="833168414" modes="public"/>
    </person>
    <person id="ped105" depart="792.16" type="ped_pedestrian">
        <personTrip from="-77031328" to="277007515#0" modes="public"/>
    </person>
    <person id="ped106" depart="799.71" type="ped_pedestrian">
        <personTrip from="1355294513" to="1355283082#2" modes="public"/>
    </person>
    <person id="ped107" depart="807.25" type="ped_pedestrian">
        <personTrip from="619566332" to="834627919#1" modes="public"/>
    </person>
    <person id="ped108" depart="814.80" type="ped_pedestrian">
        <personTrip from="139377251#2" to="276995990#3" modes="public"/>
    </person>
    <person id="ped109" depart="822.34" type="ped_pedestrian">
        <personTrip from="-199771255" to="1193171351#1" modes="public"/>
    </person>
    <person id="ped110" depart="829.89" type="ped_pedestrian">
        <personTrip from="826498441#0" to="139377258#0" modes="public"/>
    </person>
    <person id="ped111" depart="837.43" type="ped_pedestrian">
        <personTrip from="139377250#0" to="276995994#4" modes="public"/>
    </person>
    <person id="ped112" depart="844.98" type="ped_pedestrian">
        <personTrip from="-1360244738" to="139377258#3" modes="public"/>
    </person>
    <person id="ped113" depart="852.52" type="ped_pedestrian">
        <personTrip from="1360226744" to="277060259#2" modes="public"/>
    </person>
    <person id="ped114" depart="860.06" type="ped_pedestrian">
        <personTrip from="-199771256" to="624376104#0" modes="public"/>
    </person>
    <person id="ped115" depart="867.61" type="ped_pedestrian">
        <personTrip from="-139377245#0" to="-276995977" modes="public"/>
    </person>
    <person id="ped116" depart="875.15" type="ped_pedestrian">
        <personTrip from="197841304" to="276995971#6" modes="public"/>
    </person>
    <person id="ped117" depart="882.70" type="ped_pedestrian">
        <personTrip from="-50825961" to="-139377256#2" modes="public"/>
    </person>
    <person id="ped118" depart="890.24" type="ped_pedestrian">
        <personTrip from="50825965" to="-50833125#1" modes="public"/>
    </person>
    <person id="ped119" depart="897.79" type="ped_pedestrian">
        <personTrip from="197841304" to="197841312#5" modes="public"/>
    </person>
    <person id="ped120" depart="905.33" type="ped_pedestrian">
        <personTrip from="1355283082#1" to="139377258#3" modes="public"/>
    </person>
    <person id="ped121" depart="912.88" type="ped_pedestrian">
        <personTrip from="139377238#1" to="61270130#0" modes="public"/>
    </person>
    <person id="ped122" depart="920.42" type="ped_pedestrian">
        <personTrip from="-277007470" to="276995990#2" modes="public"/>
    </person>
    <person id="ped123" depart="927.96" type="ped_pedestrian">
        <personTrip from="-50825962#1" to="1355283072#1" modes="public"/>
    </person>
    <person id="ped124" depart="935.51" type="ped_pedestrian">
        <personTrip from="276995971#5" to="128042010" modes="public"/>
    </person>
    <person id="ped125" depart="943.05" type="ped_pedestrian">
        <personTrip from="1355267450" to="276995994#5" modes="public"/>
    </person>
    <person id="ped126" depart="950.60" type="ped_pedestrian">
        <personTrip from="-139377238#1" to="1355310066#1" modes="public"/>
    </person>
    <person id="ped127" depart="958.14" type="ped_pedestrian">
        <personTrip from="988641862" to="834627919#1" modes="public"/>
    </person>
    <person id="ped128" depart="965.69" type="ped_pedestrian">
        <personTrip from="-139377238#1" to="-277007515#0" modes="public"/>
    </person>
    <person id="ped129" depart="973.23" type="ped_pedestrian">
        <personTrip from="-77031328" to="61270130#0" modes="public"/>
    </person>
    <person id="ped130" depart="980.78" type="ped_pedestrian">
        <personTrip from="50825961" to="50825960" modes="public"/>
    </person>
    <person id="ped131" depart="988.32" type="ped_pedestrian">
        <personTrip from="1355267537#2" to="-199771256" modes="public"/>
    </person>
    <person id="ped132" depart="995.86" type="ped_pedestrian">
        <personTrip from="277060251#1" to="276995981#0" modes="public"/>
    </person>
    <person id="ped133" depart="1003.41" type="ped_pedestrian">
        <personTrip from="197841312#2" to="833168414" modes="public"/>
    </person>
    <person id="ped134" depart="1010.95" type="ped_pedestrian">
        <personTrip from="276995968#1" to="-1193171351#1" modes="public"/>
    </person>
    <person id="ped135" depart="1018.50" type="ped_pedestrian">
        <personTrip from="277060245#0" to="128042010" modes="public"/>
    </person>
    <person id="ped136" depart="1026.04" type="ped_pedestrian">
        <personTrip from="276995971#2" to="61270130#2" modes="public"/>
    </person>
    <person id="ped137" depart="1033.59" type="ped_pedestrian">
        <personTrip from="-139377258#3" to="-139377256#1" modes="public"/>
    </person>
    <person id="ped138" depart="1041.13" type="ped_pedestrian">
        <personTrip from="-139377251#4" to="139377251#2" modes="public"/>
    </person>
    <person id="ped139" depart="1048.67" type="ped_pedestrian">
        <personTrip from="-826498441#1" to="197841312#0" modes="public"/>
    </person>
    <person id="ped140" depart="1056.22" type="ped_pedestrian">
        <personTrip from="276995990#2" to="-277007470" modes="public"/>
    </person>
    <person id="ped141" depart="1063.76" type="ped_pedestrian">
        <personTrip from="26734557#1" to="-61270130#3" modes="public"/>
    </person>
    <person id="ped142" depart="1071.31" type="ped_pedestrian">
        <personTrip from="1355619251#0" to="50825976" modes="public"/>
    </person>
    <person id="ped143" depart="1078.85" type="ped_pedestrian">
        <personTrip from="277060259#0" to="-139377250#0" modes="public"/>
    </person>
    <person id="ped144" depart="1086.40" type="ped_pedestrian">
        <personTrip from="1355283082#3" to="-834627919#0" modes="public"/>
    </person>
    <person id="ped145" depart="1093.94" type="ped_pedestrian">
        <personTrip from="-1193171351#0" to="277007500#1" modes="public"/>
    </person>
    <person id="ped146" depart="1101.49" type="ped_pedestrian">
        <personTrip from="26734557#2" to="-61270130#3" modes="public"/>
    </person>
    <person id="ped147" depart="1109.03" type="ped_pedestrian">
        <personTrip from="276995994#2" to="139377251#1" modes="public"/>
    </person>
    <person id="ped148" depart="1116.57" type="ped_pedestrian">
        <personTrip from="1355283083#0" to="-1355267468" modes="public"/>
    </person>
    <person id="ped149" depart="1124.12" type="ped_pedestrian">
        <personTrip from="-139377242#0" to="50825962#0" modes="public"/>
    </person>
    <person id="ped150" depart="1131.66" type="ped_pedestrian">
        <personTrip from="50825976" to="139377250#1" modes="public"/>
    </person>
    <person id="ped151" depart="1139.21" type="ped_pedestrian">
        <personTrip from="277060251#1" to="139377258#3" modes="public"/>
    </person>
    <person id="ped152" depart="1146.75" type="ped_pedestrian">
        <personTrip from="-197841304" to="-139377258#0" modes="public"/>
    </person>
    <person id="ped153" depart="1154.30" type="ped_pedestrian">
        <personTrip from="1355267447#1" to="50825974" modes="public"/>
    </person>
    <person id="ped154" depart="1161.84" type="ped_pedestrian">
        <personTrip from="277007523" to="292046245#0" modes="public"/>
    </person>
    <person id="ped155" depart="1169.39" type="ped_pedestrian">
        <personTrip from="50825974" to="-277007483#1" modes="public"/>
    </person>
    <person id="ped156" depart="1176.93" type="ped_pedestrian">
        <personTrip from="-50833125#2" to="-139377251#1" modes="public"/>
    </person>
    <person id="ped157" depart="1184.47" type="ped_pedestrian">
        <personTrip from="277007514#1" to="50825962#0" modes="public"/>
    </person>
    <person id="ped158" depart="1192.02" type="ped_pedestrian">
        <personTrip from="1355283074#2" to="199771254" modes="public"/>
    </person>
    <person id="ped159" depart="1199.56" type="ped_pedestrian">
        <personTrip from="-199771255" to="546375643#1" modes="public"/>
    </person>
    <person id="ped160" depart="1207.11" type="ped_pedestrian">
        <personTrip from="310467448#0" to="826498442#0" modes="public"/>
    </person>
    <person id="ped161" depart="1214.65" type="ped_pedestrian">
        <personTrip from="277060229" to="50825961" modes="public"/>
    </person>
    <person id="ped162" depart="1222.20" type="ped_pedestrian">
        <personTrip from="-1355283081" to="276995994#0" modes="public"/>
    </person>
    <person id="ped163" depart="1229.74" type="ped_pedestrian">
        <personTrip from="1355267459#0" to="546375643#1" modes="public"/>
    </person>
    <person id="ped164" depart="1237.29" type="ped_pedestrian">
        <personTrip from="277060220#1" to="310467448#0" modes="public"/>
    </person>
    <person id="ped165" depart="1244.83" type="ped_pedestrian">
        <personTrip from="277060229" to="-77031328" modes="public"/>
    </person>
    <person id="ped166" depart="1252.37" type="ped_pedestrian">
        <personTrip from="277007515#1" to="-139377251#4" modes="public"/>
    </person>
    <person id="ped167" depart="1259.92" type="ped_pedestrian">
        <personTrip from="375334741" to="292046243#9" modes="public"/>
    </person>
    <person id="ped168" depart="1267.46" type="ped_pedestrian">
        <personTrip from="-277007522#1" to="277060245#0" modes="public"/>
    </person>
    <person id="ped169" depart="1275.01" type="ped_pedestrian">
        <personTrip from="1355310066#2" to="1355267447#0" modes="public"/>
    </person>
    <person id="ped170" depart="1282.55" type="ped_pedestrian">
        <personTrip from="277007523" to="-310467448#1" modes="public"/>
    </person>
    <person id="ped171" depart="1290.10" type="ped_pedestrian">
        <personTrip from="-1355283081" to="-276995990#1" modes="public"/>
    </person>
    <person id="ped172" depart="1297.64" type="ped_pedestrian">
        <personTrip from="1355267455#1" to="310467448#0" modes="public"/>
    </person>
    <person id="ped173" depart="1305.19" type="ped_pedestrian">
        <personTrip from="77031328" to="-834627919#0" modes="public"/>
    </person>
    <person id="ped174" depart="1312.73" type="ped_pedestrian">
        <personTrip from="272439104#2" to="1355283073" modes="public"/>
    </person>
    <person id="ped175" depart="1320.27" type="ped_pedestrian">
        <personTrip from="827278603" to="139377249#0" modes="public"/>
    </person>
    <person id="ped176" depart="1327.82" type="ped_pedestrian">
        <personTrip from="61270130#2" to="-139377256#1" modes="public"/>
    </person>
    <person id="ped177" depart="1335.36" type="ped_pedestrian">
        <personTrip from="826498441#0" to="-276995973#0" modes="public"/>
    </person>
    <person id="ped178" depart="1342.91" type="ped_pedestrian">
        <personTrip from="624376104#1" to="-77031328" modes="public"/>
    </person>
    <person id="ped179" depart="1350.45" type="ped_pedestrian">
        <personTrip from="-139377251#4" to="1355283084" modes="public"/>
    </person>
    <person id="ped180" depart="1358.00" type="ped_pedestrian">
        <personTrip from="276995991#1" to="1355267449" modes="public"/>
    </person>
    <person id="ped181" depart="1365.54" type="ped_pedestrian">
        <personTrip from="197841312#1" to="139377237#0" modes="public"/>
    </person>
    <person id="ped182" depart="1373.09" type="ped_pedestrian">
        <personTrip from="1355283069#1" to="139377258#0" modes="public"/>
    </person>
    <person id="ped183" depart="1380.63" type="ped_pedestrian">
        <personTrip from="-61270130#0" to="276995981#1" modes="public"/>
    </person>
    <person id="ped184" depart="1388.17" type="ped_pedestrian">
        <personTrip from="-116513913" to="546373399#2" modes="public"/>
    </person>
    <person id="ped185" depart="1395.72" type="ped_pedestrian">
        <personTrip from="139377249#1" to="276995990#3" modes="public"/>
    </person>
    <person id="ped186" depart="1403.26" type="ped_pedestrian">
        <personTrip from="276995994#2" to="276995971#5" modes="public"/>
    </person>
    <person id="ped187" depart="1410.81" type="ped_pedestrian">
        <personTrip from="1355267537#0" to="-139377238#0" modes="public"/>
    </person>
    <person id="ped188" depart="1418.35" type="ped_pedestrian">
        <personTrip from="276995971#2" to="1355267459#0" modes="public"/>
    </person>
    <person id="ped189" depart="1425.90" type="ped_pedestrian">
        <personTrip from="1355267449" to="277060259#1" modes="public"/>
    </person>
    <person id="ped190" depart="1433.44" type="ped_pedestrian">
        <personTrip from="276995990#3" to="1355197179" modes="public"/>
    </person>
    <person id="ped191" depart="1440.99" type="ped_pedestrian">
        <personTrip from="1355267448" to="1355283074#2" modes="public"/>
    </person>
    <person id="ped192" depart="1448.53" type="ped_pedestrian">
        <personTrip from="1355283074#0" to="1193171351#1" modes="public"/>
    </person>
    <person id="ped193" depart="1456.07" type="ped_pedestrian">