<?xml version="1.0" encoding="UTF-8"?>

<!-- generated on 2025-05-20 02:44:17.776917 by osmWebWizard.py v1_23_1+0000-676720d13f6
<configuration>
    <net-file value="C:\Users\trose\Sumo\2025-05-20-02-43-49\osm.net.xml.gz"/>
    <output-trip-file value="C:\Users\trose\Sumo\2025-05-20-02-43-49\osm.truck.trips.xml"/>
    <route-file value="C:\Users\trose\Sumo\2025-05-20-02-43-49\osm.truck.rou.xml"/>
    <prefix value="truck"/>
    <trip-attributes value="departLane=&quot;best&quot;"/>
    <fringe-start-attributes value="departSpeed=&quot;max&quot;"/>
    <vehicle-class value="truck"/>
    <fringe-factor value="5"/>
    <edge-permission value="truck"/>
    <via-edge-types value="highway.motorway,highway.motorway_link,highway.trunk_link,highway.primary_link,highway.secondary_link,highway.tertiary_link"/>
    <min-distance value="600.0"/>
    <min-distance.fringe value="10.0"/>
    <remove-loops value="True"/>
    <validate value="True"/>
    <insertion-density value="20.0"/>
</configuration>
-->

<routes xmlns:xsi="http://www.w3.org/2001/XMLSchema-instance" xsi:noNamespaceSchemaLocation="http://sumo.dlr.de/xsd/routes_file.xsd">
    <vType id="truck_truck" vClass="truck"/>
    <trip id="truck0" depart="0.00" from="276781728#0" to="276781728#3" departLane="best" type="truck_truck" departSpeed="max"/>
    <trip id="truck1" depart="19.99" from="63036080#1" to="-197841301#0" departLane="best" type="truck_truck"/>
    <trip id="truck2" depart="39.98" from="197841301#3" to="150768635#3" departLane="best" type="truck_truck"/>
    <trip id="truck3" depart="59.97" from="-276781728#3" to="197841301#3" departLane="best" type="truck_truck" departSpeed="max"/>
    <trip id="truck4" depart="79.96" from="50833122#0" to="276781728#3" departLane="best" type="truck_truck"/>
    <trip id="truck5" depart="99.95" from="-150768635#3" to="-197841301#0" departLane="best" type="truck_truck" departSpeed="max"/>
    <trip id="truck6" depart="119.94" from="197841301#2" to="-63036080#9" departLane="best" type="truck_truck"/>
    <trip id="truck7" depart="139.93" from="150768635#1" to="276781728#3" departLane="best" type="truck_truck"/>
    <trip id="truck8" depart="159.92" from="-276781728#3" to="-150768635#0" departLane="best" type="truck_truck" departSpeed="max"/>
    <trip id="truck9" depart="179.91" from="-276781728#3" to="63036080#8" departLane="best" type="truck_truck" departSpeed="max"/>
    <trip id="truck10" depart="199.90" from="-84620431#0" to="-276781739" departLane="best" type="truck_truck"/>
    <trip id="truck11" depart="219.89" from="84620431#3" to="150768635#3" departLane="best" type="truck_truck"/>
    <trip id="truck12" depart="239.88" from="-150768635#3" to="-84620431#1" departLane="best" type="truck_truck" departSpeed="max"/>
    <trip id="truck13" depart="259.87" from="84620431#3" to="150768635#3" departLane="best" type="truck_truck"/>
    <trip id="truck14" depart="279.86" from="24556602#1" to="150768635#3" departLane="best" type="truck_truck"/>
    <trip id="truck15" depart="299.85" from="-197841301#1" to="149185404#0" departLane="best" type="truck_truck"/>
    <trip id="truck16" depart="319.84" from="-39946669#3" to="-166901394#0" departLane="best" type="truck_truck" departSpeed="max"/>
    <trip id="truck17" depart="339.83" from="-150768635#3" to="277007471#2" departLane="best" type="truck_truck" departSpeed="max"/>
    <trip id="truck18" depart="359.82" from="-276781728#2" to="-63036080#3" departLane="best" type="truck_truck"/>
    <trip id="truck19" depart="379.81" from="84620431#3" to="276781728#2" departLane="best" type="truck_truck"/>
    <trip id="truck20" depart="399.80" from="-150768635#3" to="24556602#2" departLane="best" type="truck_truck" departSpeed="max"/>
    <trip id="truck21" depart="419.78" from="-276781728#3" to="63036080#4" departLane="best" type="truck_truck" departSpeed="max"/>
    <trip id="truck22" depart="439.77" from="-276781728#3" to="-197841301#2" departLane="best" type="truck_truck" departSpeed="max"/>
    <trip id="truck23" depart="459.76" from="63036080#7" to="197841301#1" departLane="best" type="truck_truck"/>
    <trip id="truck24" depart="479.75" from="276781728#0" to="276781728#3" departLane="best" type="truck_truck" departSpeed="max"/>
    <trip id="truck25" depart="499.74" from="-276781739" to="63036080#6" departLane="best" type="truck_truck"/>
    <trip id="truck26" depart="519.73" from="-150768635#3" to="197841301#3" departLane="best" type="truck_truck" departSpeed="max"/>
    <trip id="truck27" depart="539.72" from="-150768635#3" to="-24556602#2" departLane="best" type="truck_truck" departSpeed="max"/>
    <trip id="truck28" depart="559.71" from="197841301#0" to="276781728#3" departLane="best" type="truck_truck" departSpeed="max"/>
    <trip id="truck29" depart="579.70" from="-276781728#3" to="-197841301#1" departLane="best" type="truck_truck" departSpeed="max"/>
    <trip id="truck30" depart="599.69" from="-276781728#3" to="277007471#0" departLane="best" type="truck_truck" departSpeed="max"/>
    <trip id="truck31" depart="619.68" from="-276781728#3" to="-84620431#2" departLane="best" type="truck_truck" departSpeed="max"/>
    <trip id="truck32" depart="639.67" from="-150768635#3" to="149185413#1" departLane="best" type="truck_truck" departSpeed="max"/>
    <trip id="truck33" depart="659.66" from="50833122#4" to="276781739" departLane="best" type="truck_truck"/>
    <trip id="truck34" depart="679.65" from="-150768635#3" to="63036080#0" departLane="best" type="truck_truck" departSpeed="max"/>
    <trip id="truck35" depart="699.64" from="63036080#3" to="150768635#3" departLane="best" type="truck_truck"/>
    <trip id="truck36" depart="719.63" from="-276781739" to="-197841301#0" departLane="best" type="truck_truck"/>
    <trip id="truck37" depart="739.62" from="84620431#1" to="150768635#3" departLane="best" type="truck_truck"/>
    <trip id="truck38" depart="759.61" from="63036080#7" to="-197841301#1" departLane="best" type="truck_truck"/>
    <trip id="truck39" depart="779.60" from="197841301#0" to="150768635#3" departLane="best" type="truck_truck" departSpeed="max"/>
    <trip id="truck40" depart="799.59" from="-63036080#8" to="197841301#2" departLane="best" type="truck_truck"/>
    <trip id="truck41" depart="819.58" from="276781728#1" to="276781728#3" departLane="best" type="truck_truck"/>
    <trip id="truck42" depart="839.57" from="63036080#7" to="276781728#3" departLane="best" type="truck_truck"/>
    <trip id="truck43" depart="859.56" from="197841301#1" to="-63036080#5" departLane="best" type="truck_truck"/>
    <trip id="truck44" depart="879.55" from="-276781728#1" to="276781728#3" departLane="best" type="truck_truck"/>
    <trip id="truck45" depart="899.54" from="-276781739" to="50833122#0" departLane="best" type="truck_truck"/>
    <trip id="truck46" depart="919.53" from="197841301#0" to="63036080#9" departLane="best" type="truck_truck" departSpeed="max"/>
    <trip id="truck47" depart="939.52" from="276781728#0" to="150768635#3" departLane="best" type="truck_truck" departSpeed="max"/>
    <trip id="truck48" depart="959.51" from="50833122#4" to="150768635#3" departLane="best" type="truck_truck"/>
    <trip id="truck49" depart="979.50" from="-276781739" to="276781728#1" departLane="best" type="truck_truck"/>
    <trip id="truck50" depart="999.49" from="-84620431#1" to="150768635#3" departLane="best" type="truck_truck"/>
    <trip id="truck51" depart="1019.48" from="-63036080#1" to="276781728#3" departLane="best" type="truck_truck"/>
    <trip id="truck52" depart="1039.47" from="-150768635#2" to="-84620431#0" departLane="best" type="truck_truck"/>
    <trip id="truck53" depart="1059.46" from="-276781728#3" to="-63036080#4" departLane="best" type="truck_truck" departSpeed="max"/>
    <trip id="truck54" depart="1079.45" from="276781739" to="-84620431#0" departLane="best" type="truck_truck"/>
    <trip id="truck55" depart="1099.44" from="-276781739" to="-197841301#0" departLane="best" type="truck_truck"/>
    <trip id="truck56" depart="1119.43" from="-197841301#2" to="276781728#3" departLane="best" type="truck_truck"/>
    <trip id="truck57" depart="1139.42" from="276781728#2" to="-197841301#0" departLane="best" type="truck_truck"/>
    <trip id="truck58" depart="1159.41" from="-150768635#3" to="277007471#1" departLane="best" type="truck_truck" departSpeed="max"/>
    <trip id="truck59" depart="1179.40" from="-276781739" to="-197841301#1" departLane="best" type="truck_truck"/>
    <trip id="truck60" depart="1199.39" from="-276781728#1" to="-197841301#1" departLane="best" type="truck_truck"/>
    <trip id="truck61" depart="1219.38" from="-276781728#0" to="-276781739" departLane="best" type="truck_truck"/>
    <trip id="truck62" depart="1239.37" from="84620431#1" to="150768635#3" departLane="best" type="truck_truck"/>
    <trip id="truck63" depart="1259.35" from="-150768635#3" to="24556602#2" departLane="best" type="truck_truck" departSpeed="max"/>
    <trip id="truck64" depart="1279.34" from="-150768635#3" to="-197841301#4" departLane="best" type="truck_truck" departSpeed="max"/>
    <trip id="truck65" depart="1299.33" from="-276781728#3" to="-276781728#2" departLane="best" type="truck_truck" departSpeed="max"/>
    <trip id="truck66" depart="1319.32" from="276781728#2" to="197841301#1" departLane="best" type="truck_truck"/>
    <trip id="truck67" depart="1339.31" from="24556602#2" to="276781739" departLane="best" type="truck_truck"/>
    <trip id="truck68" depart="1359.30" from="63036080#8" to="150768635#2" departLane="best" type="truck_truck"/>
    <trip id="truck69" depart="1379.29" from="139377230" to="-197841301#0" departLane="best" type="truck_truck"/>
    <trip id="truck70" depart="1399.28" from="-150768635#3" to="682628452" departLane="best" type="truck_truck" departSpeed="max"/>
    <trip id="truck71" depart="1419.27" from="-150768635#1" to="277007471#2" departLane="best" type="truck_truck"/>
    <trip id="truck72" depart="1439.26" from="139377230" to="-197841301#0" departLane="best" type="truck_truck"/>
    <trip id="truck73" depart="1459.25" from="-63036080#0" to="276781728#3" departLane="best" type="truck_truck"/>
    <trip id="truck74" depart="1479.24" from="-84620431#0" to="150768635#3" departLane="best" type="truck_truck"/>
    <trip id="truck75" depart="1499.23" from="84620431#2" to="276781728#3" departLane="best" type="truck_truck"/>
    <trip id="truck76" depart="1519.22" from="276781739" to="24556602#1" departLane="best" type="truck_truck"/>
    <trip id="truck77" depart="1539.21" from="276781739" to="-276781728#2" departLane="best" type="truck_truck"/>
    <trip id="truck78" depart="1559.20" from="50833122#4" to="150768635#2" departLane="best" type="truck_truck"/>
    <trip id="truck79" depart="1579.19" from="276781728#0" to="150768635#3" departLane="best" type="truck_truck" departSpeed="max"/>
    <trip id="truck80" depart="1599.18" from="63036080#5" to="150768635#3" departLane="best" type="truck_truck"/>
    <trip id="truck81" depart="1619.17" from="150768635#1" to="150768635#3" departLane="best" type="truck_truck"/>
    <trip id="truck82" depart="1639.16" from="-276781728#1" to="276781728#3" departLane="best" type="truck_truck"/>
    <trip id="truck83" depart="1659.15" from="276781728#1" to="276781739" departLane="best" type="truck_truck"/>
    <trip id="truck84" depart="1679.14" from="-63036080#1" to="276781728#3" departLane="best" type="truck_truck"/>
    <trip id="truck85" depart="1699.13" from="-150768635#3" to="24556602#2" departLane="best" type="truck_truck" departSpeed="max"/>
    <trip id="truck86" depart="1719.12" from="-197841301#5" to="150768635#3" departLane="best" type="truck_truck"/>
    <trip id="truck87" depart="1739.11" from="-276781728#3" to="63036080#5" departLane="best" type="truck_truck" departSpeed="max"/>
    <trip id="truck88" depart="1759.10" from="-150768610#0" to="39946669#3" departLane="best" type="truck_truck"/>
    <trip id="truck89" depart="1779.09" from="63036080#3" to="276781728#3" departLane="best" type="truck_truck"/>
    <trip id="truck90" depart="1799.08" from="-276781739" to="50833122#0" departLane="best" type="truck_truck"/>
    <trip id="truck91" depart="1819.07" from="-276781728#2" to="-84620431#1" departLane="best" type="truck_truck"/>
    <trip id="truck92" depart="1839.06" from="84620431#1" to="276781728#3" departLane="best" type="truck_truck"/>
    <trip id="truck93" depart="1859.05" from="-150768635#2" to="197841301#5" departLane="best" type="truck_truck"/>
    <trip id="truck94" depart="1879.04" from="197841301#0" to="-63036080#7" departLane="best" type="truck_truck" departSpeed="max"/>
    <trip id="truck95" depart="1899.03" from="197841301#1" to="63036080#4" departLane="best" type="truck_truck"/>
    <trip id="truck96" depart="1919.02" from="-63036080#1" to="-197841301#1" departLane="best" type="truck_truck"/>
    <trip id="truck97" depart="1939.01" from="-276781728#1" to="-197841301#1" departLane="best" type="truck_truck"/>
    <trip id="truck98" depart="1959.00" from="-150768635#3" to="277007471#2" departLane="best" type="truck_truck" departSpeed="max"/>
    <trip id="truck99" depart="1978.99" from="-276781739" to="-24556602#1" departLane="best" type="truck_truck"/>
    <trip id="truck100" depart="1998.98" from="-150768610#0" to="39946669#2" departLane="best" type="truck_truck"/>
    <trip id="truck101" depart="2018.97" from="-276781728#3" to="-63036080#4" departLane="best" type="truck_truck" departSpeed="max"/>
    <trip id="truck102" depart="2038.96" from="276781728#1" to="150768635#3" departLane="best" type="truck_truck"/>
    <trip id="truck103" depart="2058.95" from="63036080#4" to="-197841301#0" departLane="best" type="truck_truck"/>
    <trip id="truck104" depart="2078.94" from="-150768635#3" to="197841301#5" departLane="best" type="truck_truck" departSpeed="max"/>
    <trip id="truck105" depart="2098.92" from="197841301#1" to="150768635#3" departLane="best" type="truck_truck"/>
    <trip id="truck106" depart="2118.91" from="276781728#0" to="-276781739" departLane="best" type="truck_truck" departSpeed="max"/>
    <trip id="truck107" depart="2138.90" from="-63036080#0" to="-197841301#1" departLane="best" type="truck_truck"/>
    <trip id="truck108" depart="2158.89" from="-63036080#4" to="276781728#3" departLane="best" type="truck_truck"/>
    <trip id="truck109" depart="2178.88" from="197841301#0" to="-63036080#7" departLane="best" type="truck_truck" departSpeed="max"/>
    <trip id="truck110" depart="2198.87" from="166901394#0" to="39946669#3" departLane="best" type="truck_truck"/>
    <trip id="truck111" depart="2218.86" from="276781728#2" to="-276781739" departLane="best" type="truck_truck"/>
    <trip id="truck112" depart="2238.85" from="276781739" to="-197841301#0" departLane="best" type="truck_truck"/>
    <trip id="truck113" depart="2258.84" from="-276781728#3" to="-197841301#3" departLane="best" type="truck_truck" departSpeed="max"/>
    <trip id="truck114" depart="2278.83" from="276781728#0" to="150768635#2" departLane="best" type="truck_truck" departSpeed="max"/>
    <trip id="truck115" depart="2298.82" from="-150768635#3" to="50833122#2" departLane="best" type="truck_truck" departSpeed="max"/>
    <trip id="truck116" depart="2318.81" from="63036080#5" to="-197841301#0" departLane="best" type="truck_truck"/>
    <trip id="truck117" depart="2338.80" from="197841301#0" to="150768635#3" departLane="best" type="truck_truck" departSpeed="max"/>
    <trip id="truck118" depart="2358.79" from="-24556602#1" to="150768635#3" departLane="best" type="truck_truck"/>
    <trip id="truck119" depart="2378.78" from="-197841301#1" to="150768635#3" departLane="best" type="truck_truck"/>
    <trip id="truck120" depart="2398.77" from="276781739" to="277007471#2" departLane="best" type="truck_truck"/>
    <trip id="truck121" depart="2418.76" from="-150768635#3" to="149185404#0" departLane="best" type="truck_truck" departSpeed="max"/>
    <trip id="truck122" depart="2438.75" from="-150768635#3" to="50833122#2" departLane="best" type="truck_truck" departSpeed="max"/>
    <trip id="truck123" depart="2458.74" from="50833122#0" to="276781728#2" departLane="best" type="truck_truck"/>
    <trip id="truck124" depart="2478.73" from="-39946669#3" to="150768610#0" departLane="best" type="truck_truck" departSpeed="max"/>
    <trip id="truck125" depart="2498.72" from="-276781739" to="149185404#0" departLane="best" type="truck_truck"/>
    <trip id="truck126" depart="2518.71" from="-150768635#3" to="-197841301#0" departLane="best" type="truck_truck" departSpeed="max"/>
    <trip id="truck127" depart="2538.70" from="276781728#0" to="276781728#3" departLane="best" type="truck_truck" departSpeed="max"/>
    <trip id="truck128" depart="2558.69" from="84620431#0" to="276781728#3" departLane="best" type="truck_truck"/>
    <trip id="truck129" depart="2578.68" from="50833122#0" to="276781728#3" departLane="best" type="truck_truck"/>
    <trip id="truck130" depart="2598.67" from="24556602#1" to="150768635#3" departLane="best" type="truck_truck"/>
    <trip id="truck131" depart="2618.66" from="-276781728#0" to="-276781739" departLane="best" type="truck_truck"/>
    <trip id="truck132" depart="2638.65" from="-276781728#3" to="-197841301#3" departLane="best" type="truck_truck" departSpeed="max"/>
    <trip id="truck133" depart="2658.64" from="-150768635#3" to="50833122#0" departLane="best" type="truck_truck" departSpeed="max"/>
    <trip id="truck134" depart="2678.63" from="-63036080#8" to="150768635#3" departLane="best" type="truck_truck"/>
    <trip id="truck135" depart="2698.62" from="-276781739" to="276781728#1" departLane="best" type="truck_truck"/>
    <trip id="truck136" depart="2718.61" from="-276781728#3" to="149185404#1" departLane="best" type="truck_truck" departSpeed="max"/>
    <trip id="truck137" depart="2738.60" from="-276781728#3" to="84620431#3" departLane="best" type="truck_truck" departSpeed="max"/>
    <trip id="truck138" depart="2758.59" from="50833122#2" to="276781728#3" departLane="best" type="truck_truck"/>
    <trip id="truck139" depart="2778.58" from="-197841301#4" to="276781739" departLane="best" type="truck_truck"/>
    <trip id="truck140" depart="2798.57" from="276781728#0" to="150768635#3" departLane="best" type="truck_truck" departSpeed="max"/>
    <trip id="truck141" depart="2818.56" from="-276781728#3" to="-197841301#4" departLane="best" type="truck_truck" departSpeed="max"/>
    <trip id="truck142" depart="2838.55" from="149185413#2" to="150768635#3" departLane="best" type="truck_truck"/>
    <trip id="truck143" depart="2858.54" from="150768610#1" to="39946669#3" departLane="best" type="truck_truck"/>
    <trip id="truck144" depart="2878.53" from="-150768635#2" to="-276781728#1" departLane="best" type="truck_truck"/>
    <trip id="truck145" depart="2898.52" from="-197841301#2" to="-63036080#9" departLane="best" type="truck_truck"/>
    <trip id="truck146" depart="2918.51" from="84620431#0" to="150768635#2" departLane="best" type="truck_truck"/>
    <trip id="truck147" depart="2938.49" from="-150768635#3" to="276781728#1" departLane="best" type="truck_truck" departSpeed="max"/>
    <trip id="truck148" depart="2958.48" from="-63036080#9" to="276781728#2" departLane="best" type="truck_truck"/>
    <trip id="truck149" depart="2978.47" from="-276781739" to="-197841301#0" departLane="best" type="truck_truck"/>
    <trip id="truck150" depart="2998.46" from="276781728#0" to="150768635#2" departLane="best" type="truck_truck" departSpeed="max"/>
    <trip id="truck151" depart="3018.45" from="-150768635#3" to="-63036080#1" departLane="best" type="truck_truck" departSpeed="max"/>
    <trip id="truck152" depart="3038.44" from="149185413#2" to="277007471#2" departLane="best" type="truck_truck"/>
    <trip id="truck153" depart="3058.43" from="-150768635#3" to="-197841301#2" departLane="best" type="truck_truck" departSpeed="max"/>
    <trip id="truck154" depart="3078.42" from="-276781739" to="24556602#2" departLane="best" type="truck_truck"/>
    <trip id="truck155" depart="3098.41" from="-276781728#3" to="197841301#5" departLane="best" type="truck_truck" departSpeed="max"/>
    <trip id="truck156" depart="3118.40" from="-276781739" to="50833122#2" departLane="best" type="truck_truck"/>
    <trip id="truck157" depart="3138.39" from="149185404#1" to="150768635#2" departLane="best" type="truck_truck"/>
    <trip id="truck158" depart="3158.38" from="-39946669#3" to="-150768610#1" departLane="best" type="truck_truck" departSpeed="max"/>
    <trip id="truck159" depart="3178.37" from="63036080#8" to="150768635#3" departLane="best" type="truck_truck"/>
    <trip id="truck160" depart="3198.36" from="84620431#0" to="-276781739" departLane="best" type="truck_truck"/>
    <trip id="truck161" depart="3218.35" from="197841301#0" to="150768635#3" departLane="best" type="truck_truck" departSpeed="max"/>
    <trip id="truck162" depart="3238.34" from="-63036080#6" to="276781728#3" departLane="best" type="truck_truck"/>
    <trip id="truck163" depart="3258.33" from="63036080#8" to="-197841301#0" departLane="best" type="truck_truck"/>
    <trip id="truck164" depart="3278.32" from="-197841301#5" to="276781728#3" departLane="best" type="truck_truck"/>
    <trip id="truck165" depart="3298.31" from="-63036080#0" to="276781728#3" departLane="best" type="truck_truck"/>
    <trip id="truck166" depart="3318.30" from="197841301#2" to="276781728#3" departLane="best" type="truck_truck"/>
    <trip id="truck167" depart="3338.29" from="-276781728#3" to="84620431#0" departLane="best" type="truck_truck" departSpeed="max"/>
    <trip id="truck168" depart="3358.28" from="-276781728#2" to="682628452" departLane="best" type="truck_truck"/>
    <trip id="truck169" depart="3378.27" from="63036080#4" to="-197841301#0" departLane="best" type="truck_truck"/>
    <trip id="truck170" depart="3398.26" from="276781739" to="-24556602#1" departLane="best" type="truck_truck"/>
    <trip id="truck171" depart="3418.25" from="50833122#2" to="150768635#3" departLane="best" type="truck_truck"/>
    <trip id="truck172" depart="3438.24" from="-197841301#1" to="-63036080#1" departLane="best" type="truck_truck"/>
    <trip id="truck173" depart="3458.23" from="-84620431#0" to="150768635#2" departLane="best" type="truck_truck"/>
    <trip id="truck174" depart="3478.22" from="63036080#1" to="276781739" departLane="best" type="truck_truck"/>
    <trip id="truck175" depart="3498.21" from="197841301#0" to="-276781739" departLane="best" type="truck_truck" departSpeed="max"/>
    <trip id="truck176" depart="3518.20" from="197841301#5" to="-276781739" departLane="best" type="truck_truck"/>
    <trip id="truck177" depart="3538.19" from="-276781739" to="277007471#2" departLane="best" type="truck_truck"/>
    <trip id="truck178" depart="3558.18" from="149185404#0" to="197841301#1" departLane="best" type="truck_truck"/>
    <trip id="truck179" depart="3578.17" from="149185413#1" to="-197841301#1" departLane="best" type="truck_truck"/>
    <trip id="truck180" depart="3598.16" from="-276781728#3" to="197841301#2" departLane="best" type="truck_truck" departSpeed="max"/>
</routes>
