<?xml version="1.0" encoding="UTF-8"?>

<!-- generated on 2025-05-20 02:44:16.152367 by osmWebWizard.py v1_23_1+0000-676720d13f6
<configuration>
    <net-file value="C:\Users\trose\Sumo\2025-05-20-02-43-49\osm.net.xml.gz"/>
    <additional-files value="C:\Users\trose\Sumo\2025-05-20-02-43-49\osm_stops.add.xml,C:\Users\trose\Sumo\2025-05-20-02-43-49\osm_pt.rou.xml"/>
    <output-trip-file value="C:\Users\trose\Sumo\2025-05-20-02-43-49\osm.pedestrian.trips.xml"/>
    <route-file value="C:\Users\trose\Sumo\2025-05-20-02-43-49\osm.pedestrian.rou.xml"/>
    <persontrips value="True"/>
    <persontrip.walk-opposite-factor value="0.8"/>
    <prefix value="ped"/>
    <trip-attributes value="modes=&quot;public&quot;"/>
    <vehicle-class value="pedestrian"/>
    <fringe-factor value="1"/>
    <insertion-density value="20.0"/>
    <duarouter-weights.tls-penalty value="20"/>
</configuration>
-->

<!-- generated on 2025-05-20 02:44:16 by Eclipse SUMO duarouter Version 1.23.1
<duarouterConfiguration xmlns:xsi="http://www.w3.org/2001/XMLSchema-instance" xsi:noNamespaceSchemaLocation="http://sumo.dlr.de/xsd/duarouterConfiguration.xsd">

    <input>
        <net-file value="C:\Users\trose\Sumo\2025-05-20-02-43-49\osm.net.xml.gz"/>
        <additional-files value="C:\Users\trose\Sumo\2025-05-20-02-43-49\osm_stops.add.xml,C:\Users\trose\Sumo\2025-05-20-02-43-49\osm_pt.rou.xml"/>
        <route-files value="C:\Users\trose\Sumo\2025-05-20-02-43-49\osm.pedestrian.trips.xml"/>
    </input>

    <output>
        <output-file value="C:\Users\trose\Sumo\2025-05-20-02-43-49\osm.pedestrian.rou.xml"/>
        <alternatives-output value="NUL"/>
    </output>

    <processing>
        <weights.tls-penalty value="20"/>
        <persontrip.walk-opposite-factor value="0.8"/>
    </processing>

    <time>
        <begin value="0.0"/>
        <end value="3600.0"/>
    </time>

    <report>
        <no-warnings value="true"/>
        <ignore-errors value="true"/>
        <no-step-log value="true"/>
    </report>

</duarouterConfiguration>
-->

<routes xmlns:xsi="http://www.w3.org/2001/XMLSchema-instance" xsi:noNamespaceSchemaLocation="http://sumo.dlr.de/xsd/routes_file.xsd">
    <vType id="ped_pedestrian" vClass="pedestrian"/>
    <person id="ped2" type="ped_pedestrian" depart="15.09">
        <walk edges="276995994#0 197841312#4 276995991#1" busStop="-257837209"/> <!-- Skandinavienkai Terminal -->
        <walk edges="-50833125#2 -50833125#1 -139377238#0 292046245#0 276995973#1 276995971#5 276995971#6 276995971#7"/>
    </person>
    <person id="ped13" type="ped_pedestrian" depart="98.08">
        <walk edges="-139377250#0 139377250#1 -139377250#1"/>
    </person>
    <person id="ped15" type="ped_pedestrian" depart="113.17">
        <walk edges="277060225#1 277060220#1 277060245#2 277060251#1 1355267459#3 1355267459#2 1355283087 276995992#1"/>
    </person>
    <person id="ped19" type="ped_pedestrian" depart="143.34">
        <walk edges="292046245#0 139377238#0 50833125#1 -50833125#2" busStop="-257837209"/> <!-- Skandinavienkai Terminal -->
        <walk edges="276995991#1 197841312#4 197841312#5 139377256#0 139377256#1 139377256#2 139377256#3 -139377258#0 139377258#0"/>
    </person>
    <person id="ped26" type="ped_pedestrian" depart="196.16">
        <walk edges="-77031328 -199771255 199771254 -61270130#3 -61270130#2 -61270130#1 61270130#1"/>
    </person>
    <person id="ped28" type="ped_pedestrian" depart="211.24">
        <walk edges="-276995972#1 -276995972#0 546373399#0 546373399#1 276995994#0 197841312#4 197841312#3 276995991#1"/>
    </person>
    <person id="ped30" type="ped_pedestrian" depart="226.33">
        <walk edges="833168415 272439104#1"/>
    </person>
    <person id="ped31" type="ped_pedestrian" depart="233.88">
        <walk edges="139377251#4 139377250#0 -139377256#0 197841312#5 276995994#0 546373399#1 546373399#0 276995972#0 276995972#1"/>
    </person>
    <person id="ped51" type="ped_pedestrian" depart="384.77">
        <walk edges="276995972#0 546373399#0 546373399#1 276995994#0 197841312#4 276995991#1" busStop="-257837209"/> <!-- Skandinavienkai Terminal -->
        <walk edges="-50833125#2 -139377249#0 139377249#0"/>
    </person>
    <person id="ped55" type="ped_pedestrian" depart="414.94">
        <walk edges="385795487 61270130#2 -61270130#3"/>
    </person>
    <person id="ped71" type="ped_pedestrian" depart="535.65">
        <walk edges="-77031328 375334741"/>
    </person>
    <person id="ped82" type="ped_pedestrian" depart="618.64">
        <walk edges="292046245#0 139377238#0 139377238#1 -139377238#1"/>
    </person>
    <person id="ped84" type="ped_pedestrian" depart="633.73">
        <walk edges="-277007515#0 139377251#0 -139377258#1"/>
    </person>
    <person id="ped90" type="ped_pedestrian" depart="679.00">
        <walk edges="276995991#1 197841312#2 197841312#1 276995971#1 276995971#2 276995971#3 276995971#4 276995971#5"/>
    </person>
    <person id="ped93" type="ped_pedestrian" depart="701.63">
        <walk edges="292046245#0 139377238#0 50833125#1 -50833125#2"/>
    </person>
    <person id="ped96" type="ped_pedestrian" depart="724.26">
        <walk edges="-50833125#2" busStop="-257837209"/> <!-- Skandinavienkai Terminal -->
        <walk edges="276995991#1 197841312#4 276995994#0 546373399#1"/>
    </person>
    <person id="ped108" type="ped_pedestrian" depart="814.80">
        <walk edges="139377251#2 139377251#4 139377251#5 276995994#2 276995991#0 276995991#1" busStop="-257837209"/> <!-- Skandinavienkai Terminal -->
        <walk edges="-50833125#2 -50833125#1 -139377238#0 292046245#0 -276995973#0 276995990#2 276995990#3"/>
    </person>
    <person id="ped111" type="ped_pedestrian" depart="837.43">
        <walk edges="139377250#0 139377251#5 276995994#3 276995994#4"/>
    </person>
    <person id="ped115" type="ped_pedestrian" depart="867.61">
        <walk edges="-139377245#0 -139377256#1 -139377256#0 197841312#5 197841312#4 276995991#1" busStop="-257837209"/> <!-- Skandinavienkai Terminal -->
        <walk edges="-50833125#2 -50833125#1 -139377238#0 292046245#0 276995973#1 276995971#5 276995971#6 -276995977"/>
    </person>
    <person id="ped128" type="ped_pedestrian" depart="965.69">
        <walk edges="-139377238#1 50833125#1 -50833125#2" busStop="-257837209"/> <!-- Skandinavienkai Terminal -->
        <walk edges="276995991#1 276995991#0 276995994#2 -139377251#5 -139377251#4 -139377251#2 -139377251#1 -139377251#0 -277007515#0"/>
    </person>
    <person id="ped129" type="ped_pedestrian" depart="973.23">
        <walk edges="-77031328 -199771255 199771254 -61270130#3 -61270130#2 -61270130#1 -61270130#0 61270130#0"/>
    </person>
    <person id="ped130" type="ped_pedestrian" depart="980.78">
        <walk edges="50825961 -176071249 50825976 50825975 50825960"/>
    </person>
    <person id="ped137" type="ped_pedestrian" depart="1033.59">
        <walk edges="-139377258#3 139377251#1 139377251#2 -139377245#1 -139377256#1"/>
    </person>
    <person id="ped138" type="ped_pedestrian" depart="1041.13">
        <walk edges="-139377251#4 139377251#2"/>
    </person>
    <person id="ped147" type="ped_pedestrian" depart="1109.03">
        <walk edges="276995994#2 -139377251#5 -139377251#4 -139377251#2 139377251#1"/>
    </person>
    <person id="ped156" type="ped_pedestrian" depart="1176.93">
        <walk edges="-50833125#2" busStop="-257837209"/> <!-- Skandinavienkai Terminal -->
        <walk edges="276995991#1 276995991#0 276995994#2 -139377251#5 -139377251#4 -139377251#2 -139377251#1"/>
    </person>
    <person id="ped166" type="ped_pedestrian" depart="1252.37">
        <walk edges="277007515#1 139377251#0 139377251#1 139377251#2 -139377251#4"/>
    </person>
    <person id="ped175" type="ped_pedestrian" depart="1320.27">
        <walk edges="827278603 -276995972#1 -276995972#0 546373399#0 546373399#1 276995994#0 197841312#4 276995991#1" busStop="-257837209"/> <!-- Skandinavienkai Terminal -->
        <walk edges="-50833125#2 -139377249#0 139377249#0"/>
    </person>
    <person id="ped185" type="ped_pedestrian" depart="1395.72">
        <walk edges="139377249#1 -50833125#1 -139377238#0 292046245#0 -276995973#0 276995990#2 276995990#3"/>
    </person>
    <person id="ped186" type="ped_pedestrian" depart="1403.26">
        <walk edges="276995994#2 276995991#0 197841312#2 197841312#1 276995971#1 276995971#2 276995971#3 276995971#4 276995971#5"/>
    </person>
    <person id="ped211" type="ped_pedestrian" depart="1591.87">
        <walk edges="-276995990#2 276995975"/>
    </person>
    <person id="ped238" type="ped_pedestrian" depart="1795.57">
        <walk edges="139377258#3 139377251#1 139377251#2 139377251#4 139377251#5 276995994#2 276995991#0 276995991#1" busStop="-257837209"/> <!-- Skandinavienkai Terminal -->
        <walk edges="-50833125#2 -50833125#1 -139377238#0 292046245#0 -276995973#0 276995990#2 276995975"/>
    </person>
    <person id="ped244" type="ped_pedestrian" depart="1840.84">
        <walk edges="139377250#1 -139377250#0 139377251#5 276995994#3 276995971#0 197841312#0"/>
    </person>
    <person id="ped245" type="ped_pedestrian" depart="1848.38">
        <walk edges="-277007515#2"/>
    </person>
    <person id="ped249" type="ped_pedestrian" depart="1878.56">
        <walk edges="1355310068#2 -276995972#0 546373399#0 546373399#1 276995994#0 197841312#5 139377256#0 139377256#1 139377256#2 139377256#3 -139377258#0"/>
    </person>
    <person id="ped253" type="ped_pedestrian" depart="1908.74">
        <walk edges="-149084809#0 149084809#1 1355310066#1 1355310066#2"/>
    </person>
    <person id="ped265" type="ped_pedestrian" depart="1999.27">
        <walk edges="-139377256#4 -139377256#3 -139377256#2 -139377256#1 -139377256#0 197841312#5 197841312#4 276995991#1" busStop="-257837209"/> <!-- Skandinavienkai Terminal -->
        <walk edges="-50833125#2 -50833125#1 -139377238#0 292046245#0 276995973#1 276995971#4"/>
    </person>
    <person id="ped266" type="ped_pedestrian" depart="2006.82">
        <walk edges="139377256#0 139377256#1 139377256#2 139377256#3 139377256#4 277007515#2 -277007515#2"/>
    </person>
    <person id="ped268" type="ped_pedestrian" depart="2021.91">
        <walk edges="-276995972#0 546373399#0 546373399#1 276995994#0 197841312#4 197841312#3 197841312#2 197841312#1"/>
    </person>
    <person id="ped269" type="ped_pedestrian" depart="2029.45">
        <walk edges="276995994#4 276995994#3 -139377251#5 139377250#0 -139377256#0"/>
    </person>
    <person id="ped274" type="ped_pedestrian" depart="2067.17">
        <walk edges="276995990#2 276995973#0 292046245#0 139377238#0 50833125#1 -50833125#2" busStop="-257837209"/> <!-- Skandinavienkai Terminal -->
        <walk edges="276995991#1 197841312#4 197841312#5 139377256#0 139377256#1 139377256#2 -139377242#0"/>
    </person>
    <person id="ped289" type="ped_pedestrian" depart="2180.34">
        <walk edges="1355283086 1355267459#0 276995992#1"/>
    </person>
    <person id="ped293" type="ped_pedestrian" depart="2210.52">
        <walk edges="1355310068#2 -276995972#0 546373399#0 546373399#1 276995994#0 197841312#4 197841312#3 197841312#2"/>
    </person>
    <person id="ped298" type="ped_pedestrian" depart="2248.24">
        <walk edges="276995977 -276995990#3 -276995990#2 276995973#0 292046245#0 139377238#0 50833125#1 -50833125#2" busStop="-257837209"/> <!-- Skandinavienkai Terminal -->
        <walk edges="276995991#1 197841312#4 276995994#0 546373399#1 546373399#0 276995972#0 276995972#1 -826498442#0"/>
    </person>
    <person id="ped300" type="ped_pedestrian" depart="2263.33">
        <walk edges="-139377249#0 -50833125#1 -139377238#0 292046245#0 -276995973#0 276995990#2 276995990#3"/>
    </person>
    <person id="ped303" type="ped_pedestrian" depart="2285.96">
        <walk edges="1355619251#0 1355619251#1 277007500#1 277007522#1"/>
    </person>
    <person id="ped311" type="ped_pedestrian" depart="2346.32">
        <walk edges="-276995990#1 276995973#0 292046245#0 139377238#0 50833125#1 -50833125#2" busStop="-257837209"/> <!-- Skandinavienkai Terminal -->
        <walk edges="276995991#1 197841312#4 197841312#5 139377256#0 139377256#1 -139377256#2"/>
    </person>
    <person id="ped313" type="ped_pedestrian" depart="2361.40">
        <walk edges="-276995975 276995971#5 -276995973#1 292046245#0 139377238#0 50833125#1 -50833125#2" busStop="-257837209"/> <!-- Skandinavienkai Terminal -->
        <walk edges="276995991#1 197841312#4 197841312#5 139377256#0 139377256#1 139377256#2 139377256#3 139377256#4 -277007515#1"/>
    </person>
    <person id="ped315" type="ped_pedestrian" depart="2376.49">
        <walk edges="826498442#1 -276995972#1 -276995972#0 546373399#0 546373399#1 276995994#0 197841312#5 139377256#0 -139377250#0 -139377251#4 -139377251#2 139377242#0"/>
    </person>
    <person id="ped319" type="ped_pedestrian" depart="2406.67">
        <walk edges="139377245#1 -139377256#1 -139377256#0 197841312#5 276995994#0 546373399#1 546373399#0 276995972#0 276995972#1 -826498442#0"/>
    </person>
    <person id="ped320" type="ped_pedestrian" depart="2414.22">
        <walk edges="826498442#0 -276995972#1 -276995972#0 546373399#0 546373399#1 276995994#0 197841312#5 139377256#0 -139377250#0 -139377251#4 139377251#2"/>
    </person>
    <person id="ped321" type="ped_pedestrian" depart="2421.76">
        <walk edges="276995976 276995981#1 276995994#6 -139377258#1 -139377256#4"/>
    </person>
    <person id="ped339" type="ped_pedestrian" depart="2557.56">
        <walk edges="-277007483#0 277007483#1 -277007483#1"/>
    </person>
    <person id="ped341" type="ped_pedestrian" depart="2572.65">
        <walk edges="-276995972#2 -276995972#1 -276995972#0 546373399#0 546373399#1 276995994#0 197841312#5 139377256#0 139377256#1 139377256#2 -139377242#0"/>
    </person>
    <person id="ped346" type="ped_pedestrian" depart="2610.37">
        <walk edges="276995972#2 -276995972#1 -276995972#0 546373399#0 546373399#1 546373399#2"/>
    </person>
    <person id="ped353" type="ped_pedestrian" depart="2663.18">
        <walk edges="276995994#4 -139377245#1 139377256#2"/>
    </person>
    <person id="ped355" type="ped_pedestrian" depart="2678.27">
        <walk edges="276995973#0 292046245#0 139377238#0 50833125#1 -50833125#2" busStop="-257837209"/> <!-- Skandinavienkai Terminal -->
        <walk edges="276995991#1 276995991#0 276995994#2 -139377251#5 -139377251#4 276995994#5 276995981#1 276995976"/>
    </person>
    <person id="ped356" type="ped_pedestrian" depart="2685.81">
        <walk edges="61270130#3 -61270130#2 -61270130#1 1360226745 1360226744"/>
    </person>
    <person id="ped370" type="ped_pedestrian" depart="2791.44">
        <walk edges="276995971#4 292046243#9"/>
    </person>
    <person id="ped382" type="ped_pedestrian" depart="2881.97">
        <walk edges="139377251#0 139377251#1 139377251#2 139377251#4 139377251#5 276995994#2 276995991#0 276995991#1" busStop="-257837209"/> <!-- Skandinavienkai Terminal -->
        <walk edges="546375643#0"/>
    </person>
    <person id="ped387" type="ped_pedestrian" depart="2919.69">
        <walk edges="139377251#1 139377251#2 139377251#4 139377250#0 -139377250#0"/>
    </person>
    <person id="ped393" type="ped_pedestrian" depart="2964.96">
        <walk edges="827278603 -276995972#1 -276995972#0 546373399#0 546373399#1 276995994#0 197841312#4 276995991#1" busStop="-257837209"/> <!-- Skandinavienkai Terminal -->
        <walk edges="-50833125#2 -50833125#1 -50833125#0"/>
    </person>
    <person id="ped397" type="ped_pedestrian" depart="2995.14">
        <walk edges="-826498442#0 -276995972#1 -276995972#0 546373399#0 546373399#1 276995994#0 197841312#5 139377256#0 139377256#1 139377256#2 139377256#3 139377256#4 277007515#2"/>
    </person>
    <person id="ped404" type="ped_pedestrian" depart="3047.95">
        <walk edges="139377251#1 139377251#2 139377251#4 139377250#0"/>
    </person>
    <person id="ped406" type="ped_pedestrian" depart="3063.04">
        <walk edges="-276995982#1 276995994#5 276995981#1 276995976"/>
    </person>
    <person id="ped408" type="ped_pedestrian" depart="3078.13">
        <walk edges="277007500#3 1355283074#1 -1355619251#1 -1355619251#0 -1355619250#1"/>
    </person>
    <person id="ped409" type="ped_pedestrian" depart="3085.67">
        <walk edges="276995994#3 -139377251#5 -139377251#4 276995994#5 276995981#1 276995981#0"/>
    </person>
    <person id="ped436" type="ped_pedestrian" depart="3289.37">
        <walk edges="-276995972#0 546373399#0 546373399#1 276995994#0 197841312#5 139377256#0 139377256#1 139377256#2 139377242#1 -139377242#1"/>
    </person>
    <person id="ped440" type="ped_pedestrian" depart="3319.55">
        <walk edges="-61270130#0"/>
    </person>
    <person id="ped449" type="ped_pedestrian" depart="3387.45">
        <walk edges="139377256#3 139377256#4"/>
    </person>
    <person id="ped450" type="ped_pedestrian" depart="3394.99">
        <walk edges="834627919#0 1193171351#1"/>
    </person>
    <person id="ped451" type="ped_pedestrian" depart="3402.54">
        <walk edges="826498442#1 -276995972#1 -276995972#0 546373399#0 546373399#1 276995994#0 276995994#1 276995994#2 276995994#3 276995971#0"/>
    </person>
    <person id="ped452" type="ped_pedestrian" depart="3410.08">
        <walk edges="-826498442#0 -276995972#1 -276995972#0 546373399#0 546373399#1 276995994#0 197841312#5 139377256#0 139377256#1"/>
    </person>
    <person id="ped453" type="ped_pedestrian" depart="3417.62">
        <walk edges="276995972#2 -276995972#1 -276995972#0 546373399#0 546373399#1 276995994#0 276995994#1 276995994#2 276995994#3"/>
    </person>
    <person id="ped459" type="ped_pedestrian" depart="3462.89">
        <walk edges="276995971#7 -276995977 276995990#4"/>
    </person>
    <person id="ped462" type="ped_pedestrian" depart="3485.52">
        <walk edges="276995964 277060245#1 277060251#1 1355267459#3 1355267459#2 1355283087 276995992#1 1355267448"/>
    </person>
    <person id="ped466" type="ped_pedestrian" depart="3515.70">
        <walk edges="-276995972#2 -276995972#1 -276995972#0 546373399#0 546373399#1 276995994#0 197841312#5 139377256#0 -139377250#0 -139377251#4 -139377251#2 -139377251#1 -139377258#1"/>
    </person>
    <person id="ped468" type="ped_pedestrian" depart="3530.79">
        <walk edges="139377245#0 -139377256#1 -139377256#0 197841312#5 197841312#4 276995991#1" busStop="-257837209"/> <!-- Skandinavienkai Terminal -->
        <walk edges="-50833125#2 50833125#2"/>
    </person>
    <person id="ped475" type="ped_pedestrian" depart="3583.60">
        <walk edges="276995991#0 276995994#1 276995994#0 546373399#1 546373399#0 276995972#0 276995972#1 826498442#1 827278603"/>
    </person>
</routes>
