<?xml version="1.0" encoding="UTF-8"?>

<!-- generated on 2025-05-20 02:48:42 by Eclipse SUMO netedit Version 1.23.1
-->

<additional xmlns:xsi="http://www.w3.org/2001/XMLSchema-instance" xsi:noNamespaceSchemaLocation="http://sumo.dlr.de/xsd/additional_file.xsd">
    <!-- StoppingPlaces -->
    <busStop id="-257837209" name="Skandinavienkai Terminal" lane="-24556602#2_0" startPos="21.02" endPos="36.02" friendlyPos="1" lines="36">
        <access lane="-50833125#2_0" pos="0.00" length="37.22" friendlyPos="1"/>
        <access lane="139377249#1_0" pos="17.56" length="35.33" friendlyPos="1"/>
        <access lane="197841312#3_0" pos="25.01" length="33.79" friendlyPos="1"/>
        <access lane="276995991#1_0" pos="48.14" length="10.24" friendlyPos="1"/>
        <access lane="546375643#0_0" pos="6.15" length="9.72" friendlyPos="1"/>
    </busStop>
    <busStop id="1360276252" name="Anleger 6a" lane="116300083_0" startPos="0.00" endPos="25.00" friendlyPos="1"/>
    <busStop id="1415854311" name="Anleger 5a" lane="128042010_0" startPos="0.00" endPos="25.00" friendlyPos="1"/>
</additional>
