<?xml version="1.0" encoding="UTF-8"?>

<!-- generated on 2025-05-20 02:44:14.824724 by osmWebWizard.py v1_23_1+0000-676720d13f6
<configuration>
    <net-file value="C:\Users\trose\Sumo\2025-05-20-02-43-49\osm.net.xml.gz"/>
    <ptlines-file value="C:\Users\trose\Sumo\2025-05-20-02-43-49\osm_ptlines.xml"/>
    <ptstops-file value="C:\Users\trose\Sumo\2025-05-20-02-43-49\osm_stops.add.xml"/>
    <output-file value="C:\Users\trose\Sumo\2025-05-20-02-43-49\osm_pt.rou.xml"/>
    <stopinfos-file value="C:\Users\trose\Sumo\2025-05-20-02-43-49\stopinfos.xml"/>
    <routes-file value="C:\Users\trose\Sumo\2025-05-20-02-43-49\vehroutes.xml"/>
    <trips-file value="C:\Users\trose\Sumo\2025-05-20-02-43-49\trips.trips.xml"/>
    <min-stops value="0"/>
    <extend-to-fringe value="True"/>
    <random-begin value="True"/>
    <seed value="42"/>
    <ignore-errors value="True"/>
    <vtype-prefix value="pt_"/>
    <verbose value="True"/>
</configuration>
-->

<routes xmlns:xsi="http://www.w3.org/2001/XMLSchema-instance" xsi:noNamespaceSchemaLocation="http://sumo.dlr.de/xsd/routes_file.xsd">
    <vType id="pt_bus" vClass="bus"/>
    <vType id="pt_tram" vClass="tram"/>
    <vType id="pt_train" vClass="rail"/>
    <vType id="pt_subway" vClass="subway"/>
    <vType id="pt_light_rail" vClass="rail_urban"/>
    <vType id="pt_monorail" vClass="rail_urban"/>
    <vType id="pt_trolleybus" vClass="bus"/>
    <vType id="pt_minibus" vClass="bus"/>
    <vType id="pt_share_taxi" vClass="taxi"/>
    <vType id="pt_aerialway" vClass="cable_car" length="2.5" width="2" personCapacity="4"/>
    <vType id="pt_ferry" vClass="ship"/>
    <route id="pt_bus_36:0" color="210,4,27" edges="166901394#0 -24556602#2 -24556602#1 -24556602#0 84620430#0 84620430#1 84620430#2 84620430#3 84620430#4" >
        <stop busStop="-257837209" duration="20" until="50.0"/> <!-- Skandinavienkai Terminal -->
        <stop edge="166901394#0" speed="999" jump="69.4912597824135" index="fit"/>
    </route>
    <route id="pt_bus_36:1" color="210,4,27" edges="50833122#0 50833122#1 50833122#2 50833122#4 682628452 -24556602#2 -24556602#1 -24556602#0 84620430#0 84620430#1 84620430#2 84620430#3 84620430#4" >
        <stop busStop="-257837209" duration="20" until="64.0"/> <!-- Skandinavienkai Terminal -->
    </route>
    <route id="pt_ferry_Travemünde_–_Helsinki:0" edges="707334351" >
    </route>
    <route id="pt_ferry_Travemünde_–_Liepāja:0" edges="128069455" >
    </route>
    <flow id="pt_ferry_Travemünde_–_Helsinki:0" type="pt_ferry" route="pt_ferry_Travemünde_–_Helsinki:0" begin="15.0" end="3615.0" period="600" line="Travemünde_–_Helsinki:0" >
        <param key="name" value="Travemünde – Helsinki"/>
        <param key="completeness" value="0.00"/>
    </flow>
    <flow id="pt_bus_36:0" type="pt_bus" route="pt_bus_36:0" begin="133.0" end="3733.0" period="600" line="36:0" >
        <param key="name" value="Bus LVG 36: Travemünde Priwallfähre =&gt; Roter Hahn"/>
        <param key="completeness" value="0.04"/>
    </flow>
    <flow id="pt_bus_36:1" type="pt_bus" route="pt_bus_36:1" begin="165.0" end="3765.0" period="600" line="36:1" >
        <param key="name" value="Bus LVG 36: Roter Hahn =&gt; Travemünde Priwallfähre"/>
        <param key="completeness" value="0.04"/>
    </flow>
    <flow id="pt_ferry_Travemünde_–_Liepāja:0" type="pt_ferry" route="pt_ferry_Travemünde_–_Liepāja:0" begin="441.0" end="4041.0" period="600" line="Travemünde_–_Liepāja:0" >
        <param key="name" value="Travemünde – Liepāja"/>
        <param key="completeness" value="0.00"/>
    </flow>
</routes>
