<?xml version="1.0" encoding="UTF-8"?>

<!-- generated on 2025-05-20 02:44:14.321019 by $Id: ptlines2flows.py v1_3_1+0313-ccb31df3eb jakob.erdmann@dlr.de 2019-09-02 13:26:32 +0200 $ v1_23_1+0000-676720d13f6
<configuration>
    <net-file value="C:\Users\trose\Sumo\2025-05-20-02-43-49\osm.net.xml.gz"/>
    <ptlines-file value="C:\Users\trose\Sumo\2025-05-20-02-43-49\osm_ptlines.xml"/>
    <ptstops-file value="C:\Users\trose\Sumo\2025-05-20-02-43-49\osm_stops.add.xml"/>
    <output-file value="C:\Users\trose\Sumo\2025-05-20-02-43-49\osm_pt.rou.xml"/>
    <stopinfos-file value="C:\Users\trose\Sumo\2025-05-20-02-43-49\stopinfos.xml"/>
    <routes-file value="C:\Users\trose\Sumo\2025-05-20-02-43-49\vehroutes.xml"/>
    <trips-file value="C:\Users\trose\Sumo\2025-05-20-02-43-49\trips.trips.xml"/>
    <min-stops value="0"/>
    <extend-to-fringe value="True"/>
    <random-begin value="True"/>
    <seed value="42"/>
    <ignore-errors value="True"/>
    <vtype-prefix value="pt_"/>
    <verbose value="True"/>
</configuration>
-->

<routes xmlns:xsi="http://www.w3.org/2001/XMLSchema-instance" xsi:noNamespaceSchemaLocation="http://sumo.dlr.de/xsd/routes_file.xsd">
    <vType id="pt_bus" vClass="bus" speedFactor="0.95"/>
    <vType id="pt_tram" vClass="tram" speedFactor="1.0"/>
    <vType id="pt_train" vClass="rail"/>
    <vType id="pt_subway" vClass="subway"/>
    <vType id="pt_light_rail" vClass="rail_urban"/>
    <vType id="pt_monorail" vClass="rail_urban"/>
    <vType id="pt_trolleybus" vClass="bus" speedFactor="0.95"/>
    <vType id="pt_minibus" vClass="bus" speedFactor="0.95"/>
    <vType id="pt_share_taxi" vClass="taxi" speedFactor="0.95"/>
    <vType id="pt_aerialway" vClass="cable_car" length="2.5" width="2" personCapacity="4"/>
    <vType id="pt_ferry" vClass="ship"/>
    <trip id="0_ferry_Travemünde_–_Helsinki:0" type="pt_ferry" depart="15.0" departLane="best" from="707334351" to="707334351">
    </trip>
    <trip id="1_bus_36:0" type="pt_bus" depart="133.0" departLane="best" from="166901394#0" to="84620430#4">
        <stop busStop="-257837209" duration="30"/>  <!-- Skandinavienkai Terminal -->
    </trip>
    <trip id="2_bus_36:1" type="pt_bus" depart="165.0" departLane="best" from="50833122#0" to="84620430#4">
        <stop busStop="-257837209" duration="30"/>  <!-- Skandinavienkai Terminal -->
    </trip>
    <trip id="3_ferry_Travemünde_–_Malmö:0" type="pt_ferry" depart="383.0" departLane="best" from="128042010" to="128042010">
        <stop busStop="1415854311" duration="30"/>  <!-- Anleger 5a -->
    </trip>
    <trip id="4_ferry_:0" type="pt_ferry" depart="406.0" departLane="best" from="116300083" to="116300083">
        <stop busStop="1360276252" duration="30"/>  <!-- Anleger 6a -->
    </trip>
    <trip id="5_ferry_Travemünde_–_Liepāja:0" type="pt_ferry" depart="441.0" departLane="best" from="128069455" to="128069455">
    </trip>
    <trip id="6_ferry_:1" type="pt_ferry" depart="535.0" departLane="best" from="116300083" to="116300083">
        <stop busStop="1360276252" duration="30"/>  <!-- Anleger 6a -->
    </trip>
</routes>
