<?xml version="1.0" encoding="UTF-8"?>

<!-- generated on 2025-05-19 21:07:33 by Eclipse SUMO netedit Version 1.23.1
<neteditConfiguration xmlns:xsi="http://www.w3.org/2001/XMLSchema-instance" xsi:noNamespaceSchemaLocation="http://sumo.dlr.de/xsd/neteditConfiguration.xsd">

    <input>
        <sumo-net-file value="C:\Users\trose\Workspace\Fellowship &apos;25 Personal\2025-Fellowship-Personal\SUMOlypmics\sumolympics.net.xml"/>
    </input>

    <output>
        <output-file value="C:\Users\trose\Workspace\Fellowship &apos;25 Personal\2025-Fellowship-Personal\SUMOlypmics\sumolympics.net.xml"/>
    </output>

    <processing>
        <offset.disable-normalization value="true"/>
    </processing>

    <junctions>
        <no-turnarounds value="true"/>
    </junctions>

    <netedit>
        <new-network value="false"/>
    </netedit>

</neteditConfiguration>
-->

<net version="1.20" junctionCornerDetail="5" limitTurnSpeed="5.50" xmlns:xsi="http://www.w3.org/2001/XMLSchema-instance" xsi:noNamespaceSchemaLocation="http://sumo.dlr.de/xsd/net_file.xsd">

    <location netOffset="0.00,0.00" convBoundary="0.00,0.00,1000.00,0.00" origBoundary="10000000000.00,10000000000.00,-10000000000.00,-10000000000.00" projParameter="!"/>

    <edge id=":J2_0" function="internal">
        <lane id=":J2_0_0" index="0" allow="pedestrian" speed="13.89" length="0.10" width="2.00" shape="100.00,-12.70 100.00,-12.70"/>
        <lane id=":J2_0_1" index="1" allow="bicycle" speed="13.89" length="0.10" width="2.10" shape="100.00,-10.65 100.00,-10.65"/>
        <lane id=":J2_0_2" index="2" allow="bus" speed="13.89" length="0.10" shape="100.00,-8.00 100.00,-8.00"/>
        <lane id=":J2_0_3" index="3" allow="passenger" speed="13.89" length="0.10" shape="100.00,-4.80 100.00,-4.80"/>
        <lane id=":J2_0_4" index="4" allow="rail_urban" speed="13.89" length="0.10" shape="100.00,-1.60 100.00,-1.60"/>
    </edge>

    <edge id="beg" from="J0" to="J2" priority="-1">
        <lane id="beg_0" index="0" allow="pedestrian" speed="13.89" length="100.00" width="2.00" shape="0.00,-12.70 100.00,-12.70"/>
        <lane id="beg_1" index="1" allow="bicycle" speed="13.89" length="100.00" width="2.10" shape="0.00,-10.65 100.00,-10.65"/>
        <lane id="beg_2" index="2" allow="bus" speed="13.89" length="100.00" shape="0.00,-8.00 100.00,-8.00"/>
        <lane id="beg_3" index="3" allow="passenger" speed="13.89" length="100.00" shape="0.00,-4.80 100.00,-4.80"/>
        <lane id="beg_4" index="4" allow="rail_urban" speed="13.89" length="100.00" shape="0.00,-1.60 100.00,-1.60"/>
    </edge>
    <edge id="end" from="J2" to="J1" priority="-1">
        <lane id="end_0" index="0" allow="pedestrian" speed="13.89" length="900.00" width="2.00" shape="100.00,-12.70 1000.00,-12.70"/>
        <lane id="end_1" index="1" allow="bicycle" speed="13.89" length="900.00" width="2.10" shape="100.00,-10.65 1000.00,-10.65"/>
        <lane id="end_2" index="2" allow="bus" speed="13.89" length="900.00" shape="100.00,-8.00 1000.00,-8.00"/>
        <lane id="end_3" index="3" allow="passenger" speed="13.89" length="900.00" shape="100.00,-4.80 1000.00,-4.80"/>
        <lane id="end_4" index="4" allow="rail_urban" speed="13.89" length="900.00" shape="100.00,-1.60 1000.00,-1.60"/>
    </edge>

    <tlLogic id="J2" type="static" programID="0" offset="0">
        <phase duration="82" state="GGGGG"/>
        <phase duration="3"  state="yyyyy"/>
        <phase duration="5"  state="rrrrr"/>
    </tlLogic>

    <junction id="J0" type="dead_end" x="0.00" y="0.00" incLanes="" intLanes="" shape="0.00,0.00 0.00,-13.70"/>
    <junction id="J1" type="dead_end" x="1000.00" y="0.00" incLanes="end_0 end_1 end_2 end_3 end_4" intLanes="" shape="1000.00,-13.70 1000.00,0.00"/>
    <junction id="J2" type="traffic_light" x="100.00" y="0.00" incLanes="beg_0 beg_1 beg_2 beg_3 beg_4" intLanes=":J2_0_0 :J2_0_1 :J2_0_2 :J2_0_3 :J2_0_4" shape="100.00,0.00 100.00,-13.70 100.00,0.00">
        <request index="0" response="00000" foes="00000" cont="0"/>
        <request index="1" response="00000" foes="00000" cont="0"/>
        <request index="2" response="00000" foes="00000" cont="0"/>
        <request index="3" response="00000" foes="00000" cont="0"/>
        <request index="4" response="00000" foes="00000" cont="0"/>
    </junction>

    <connection from="beg" to="end" fromLane="0" toLane="0" via=":J2_0_0" tl="J2" linkIndex="0" dir="s" state="O"/>
    <connection from="beg" to="end" fromLane="1" toLane="1" via=":J2_0_1" tl="J2" linkIndex="1" dir="s" state="O"/>
    <connection from="beg" to="end" fromLane="2" toLane="2" via=":J2_0_2" tl="J2" linkIndex="2" dir="s" state="O"/>
    <connection from="beg" to="end" fromLane="3" toLane="3" via=":J2_0_3" tl="J2" linkIndex="3" dir="s" state="O"/>
    <connection from="beg" to="end" fromLane="4" toLane="4" via=":J2_0_4" tl="J2" linkIndex="4" dir="s" state="O"/>

    <connection from=":J2_0" to="end" fromLane="0" toLane="0" dir="s" state="M"/>
    <connection from=":J2_0" to="end" fromLane="1" toLane="1" dir="s" state="M"/>
    <connection from=":J2_0" to="end" fromLane="2" toLane="2" dir="s" state="M"/>
    <connection from=":J2_0" to="end" fromLane="3" toLane="3" dir="s" state="M"/>
    <connection from=":J2_0" to="end" fromLane="4" toLane="4" dir="s" state="M"/>

</net>
