<configuration>
    <input>
       <net-file value="circlebt.net.xml"/>
       <route-files value="circlebt.rou.xml"/>
       <additional-files value="circlebt.add.xml"/>
    </input>
    <time>
        <begin value="0"/>
        <end value="1000"/>
    </time>
</configuration>